<?xml version="1.0" encoding="UTF-8"?>

<!-- generated on Tue Mar 30 15:29:46 2021 by Eclipse SUMO duarouter Version 1.8.0
<configuration xmlns:xsi="http://www.w3.org/2001/XMLSchema-instance" xsi:noNamespaceSchemaLocation="http://sumo.dlr.de/xsd/duarouterConfiguration.xsd">

    <input>
        <net-file value="Cottbus.net.xml"/>
        <route-files value="trips.trips.xml"/>
    </input>

    <output>
        <output-file value="Cottbus1200.rou.xml"/>
        <alternatives-output value="Cottbus1200.rou.alt.xml"/>
    </output>

</configuration>
-->

<routes xmlns:xsi="http://www.w3.org/2001/XMLSchema-instance" xsi:noNamespaceSchemaLocation="http://sumo.dlr.de/xsd/routes_file.xsd">
    <vehicle id="0" depart="0.00">
        <route edges="gneE54 gneE59 gneE58 gneE69 gneE11 gneE12"/>
    </vehicle>
    <vehicle id="1" depart="0.08">
        <route edges="gneE34 gneE23 gneE12-n gneE11-n gneE69-n gneE58-n gneE59-n gneE54-n gneE53-n gneE52-n gneE27-n gneE26-n gneE21-n gneE24 gneE29-n"/>
    </vehicle>
    <vehicle id="2" depart="0.17">
        <route edges="gneE6 gneE65 gneE64 gneE8 gneE9 gneE68 gneE69 gneE11 gneE12 gneE23-n gneE50-n gneE51 gneE24-n gneE21 gneE22 gneE38-n gneE40 gneE39 gneE5 gneE45-n gneE46 gneE52 gneE53 gneE54 gneE59 gneE70-n gneE55-n"/>
    </vehicle>
    <vehicle id="3" depart="0.25">
        <route edges="gneE68 gneE69 gneE11 gneE12 gneE23-n gneE50-n gneE51 gneE24-n gneE21 gneE22 gneE38-n gneE40 gneE39 gneE5 gneE45-n gneE46 gneE52 gneE53 gneE54 gneE55 gneE67-n gneE66-n gneE43-n gneE42-n gneE22-n"/>
    </vehicle>
    <vehicle id="4" depart="0.33">
        <route edges="gneE43-n gneE42-n gneE38-n gneE40 gneE39 gneE5 gneE45-n gneE66 gneE67 gneE70 gneE58 gneE69 gneE11 gneE12"/>
    </vehicle>
    <vehicle id="5" depart="0.42">
        <route edges="gneE29-n gneE28-n gneE27-n gneE26-n gneE21-n gneE24 gneE51-n gneE50 gneE34-n gneE33-n gneE32-n gneE53-n gneE47 gneE48"/>
    </vehicle>
    <vehicle id="6" depart="0.50">
        <route edges="gneE12 gneE23-n gneE50-n gneE51 gneE24-n gneE21 gneE22 gneE38-n gneE40 gneE39 gneE5 gneE45-n gneE46 gneE28 gneE29 gneE51-n gneE48-n gneE47-n gneE52-n gneE27-n gneE26-n gneE21-n gneE24 gneE29-n gneE28-n"/>
    </vehicle>
    <vehicle id="7" depart="0.58">
        <route edges="gneE54-n gneE53-n gneE52-n gneE27-n gneE26-n gneE21-n gneE24 gneE29-n gneE28-n gneE46-n gneE45 gneE5-n"/>
    </vehicle>
    <vehicle id="8" depart="0.67">
        <route edges="gneE29-n gneE28-n gneE27-n gneE26-n gneE21-n gneE24 gneE51-n"/>
    </vehicle>
    <vehicle id="9" depart="0.75">
        <route edges="gneE64-n gneE63-n gneE67 gneE70 gneE58 gneE69 gneE11"/>
    </vehicle>
    <vehicle id="10" depart="0.83">
        <route edges="gneE64 gneE8 gneE9 gneE68 gneE69 gneE11 gneE12 gneE23-n gneE50-n gneE51 gneE24-n gneE21 gneE22 gneE38-n gneE40 gneE39 gneE5 gneE45-n gneE46 gneE28 gneE29 gneE51-n gneE50 gneE23 gneE12-n gneE11-n gneE69-n gneE58-n"/>
    </vehicle>
    <vehicle id="11" depart="0.92">
        <route edges="gneE39-n gneE40-n gneE38 gneE22-n gneE21-n gneE24 gneE29-n gneE28-n gneE27-n gneE26-n"/>
    </vehicle>
    <vehicle id="12" depart="1.00">
        <route edges="gneE8 gneE9 gneE68 gneE69 gneE11 gneE12 gneE23-n gneE50-n gneE51 gneE24-n gneE21 gneE22 gneE38-n gneE40 gneE39 gneE5 gneE45-n gneE46 gneE52 gneE53 gneE54 gneE55 gneE67-n gneE66-n gneE43-n gneE42-n gneE22-n gneE26 gneE27 gneE46-n gneE45 gneE5-n gneE39-n"/>
    </vehicle>
    <vehicle id="13" depart="1.08">
        <route edges="gneE23"/>
    </vehicle>
    <vehicle id="14" depart="1.16">
        <route edges="gneE66 gneE63 gneE65-n gneE6-n gneE45-n gneE46 gneE28 gneE29 gneE51-n gneE48-n gneE47-n gneE52-n"/>
    </vehicle>
    <vehicle id="15" depart="1.25">
        <route edges="gneE64-n gneE63-n gneE66-n gneE43-n gneE42-n gneE38-n gneE40 gneE39 gneE5 gneE6"/>
    </vehicle>
    <vehicle id="16" depart="1.33">
        <route edges="gneE5-n gneE39-n gneE41 gneE43 gneE66 gneE67 gneE60 gneE8-n"/>
    </vehicle>
    <vehicle id="17" depart="1.41">
        <route edges="gneE41-n gneE39 gneE5 gneE45-n gneE46 gneE28 gneE29 gneE51-n gneE50"/>
    </vehicle>
    <vehicle id="18" depart="1.50">
        <route edges="gneE65 gneE64 gneE8 gneE9 gneE68 gneE69 gneE11 gneE12 gneE23-n gneE50-n gneE51 gneE24-n gneE21 gneE22 gneE38-n gneE40 gneE39 gneE5 gneE45-n gneE46 gneE52 gneE53"/>
    </vehicle>
    <vehicle id="19" depart="1.58">
        <route edges="gneE66-n gneE46 gneE28 gneE29 gneE51-n gneE50 gneE34-n gneE33-n gneE32-n gneE53-n gneE47 gneE48 gneE51"/>
    </vehicle>
    <vehicle id="20" depart="1.66">
        <route edges="gneE59 gneE70-n gneE55-n gneE54-n gneE53-n gneE52-n gneE28 gneE29 gneE24-n gneE21"/>
    </vehicle>
    <vehicle id="21" depart="1.75">
        <route edges="gneE32 gneE33 gneE34 gneE23 gneE12-n gneE11-n gneE69-n gneE58-n gneE59-n gneE54-n gneE53-n gneE47 gneE48 gneE50 gneE34-n"/>
    </vehicle>
    <vehicle id="22" depart="1.83">
        <route edges="gneE22-n gneE26 gneE27 gneE52 gneE53 gneE54 gneE59 gneE70-n gneE55-n gneE54-n gneE32"/>
    </vehicle>
    <vehicle id="23" depart="1.91">
        <route edges="gneE23 gneE12-n gneE11-n gneE69-n gneE58-n gneE59-n gneE54-n gneE32 gneE33 gneE34"/>
    </vehicle>
    <vehicle id="24" depart="2.00">
        <route edges="gneE53-n gneE52-n gneE27-n gneE26-n gneE21-n gneE24 gneE29-n gneE28-n gneE46-n gneE45 gneE5-n gneE39-n gneE41"/>
    </vehicle>
    <vehicle id="25" depart="2.08">
        <route edges="gneE41 gneE42-n gneE38-n gneE40 gneE39 gneE5 gneE45-n gneE46 gneE28 gneE29"/>
    </vehicle>
    <vehicle id="26" depart="2.16">
        <route edges="gneE33-n gneE32-n gneE54 gneE59 gneE58 gneE68-n gneE9-n gneE60-n gneE70"/>
    </vehicle>
    <vehicle id="27" depart="2.25">
        <route edges="gneE54-n gneE53-n gneE52-n"/>
    </vehicle>
    <vehicle id="28" depart="2.33">
        <route edges="gneE27-n gneE26-n gneE22 gneE38-n gneE40 gneE39 gneE5 gneE6"/>
    </vehicle>
    <vehicle id="29" depart="2.41">
        <route edges="gneE27 gneE46-n gneE45 gneE5-n gneE39-n gneE40-n gneE38 gneE42 gneE41-n"/>
    </vehicle>
    <vehicle id="30" depart="2.50">
        <route edges="gneE9-n gneE8-n gneE64-n gneE65-n gneE6-n gneE45-n gneE46 gneE52 gneE53 gneE54"/>
    </vehicle>
    <vehicle id="31" depart="2.58">
        <route edges="gneE50-n gneE51 gneE24-n gneE21 gneE22 gneE38-n gneE40 gneE39 gneE5 gneE45-n gneE66 gneE67 gneE70 gneE58"/>
    </vehicle>
    <vehicle id="32" depart="2.66">
        <route edges="gneE66 gneE63"/>
    </vehicle>
    <vehicle id="33" depart="2.75">
        <route edges="gneE32 gneE33 gneE34 gneE23 gneE12-n gneE11-n gneE69-n gneE58-n gneE70-n gneE55-n gneE59 gneE58 gneE69 gneE11 gneE12"/>
    </vehicle>
    <vehicle id="34" depart="2.83">
        <route edges="gneE38-n gneE40 gneE39 gneE5 gneE45-n gneE46 gneE28 gneE29 gneE51-n gneE50 gneE34-n gneE33-n"/>
    </vehicle>
    <vehicle id="35" depart="2.91">
        <route edges="gneE29 gneE51-n gneE50 gneE23 gneE12-n gneE11-n gneE69-n gneE68-n gneE9-n gneE60-n gneE70"/>
    </vehicle>
    <vehicle id="36" depart="3.00">
        <route edges="gneE67-n gneE66-n gneE43-n gneE42-n gneE38-n"/>
    </vehicle>
    <vehicle id="37" depart="3.08">
        <route edges="gneE54-n gneE53-n gneE52-n gneE27-n gneE26-n gneE21-n gneE24 gneE29-n gneE28-n gneE46-n gneE45 gneE5-n gneE39-n gneE40-n gneE38 gneE42"/>
    </vehicle>
    <vehicle id="38" depart="3.16">
        <route edges="gneE69 gneE11 gneE12 gneE23-n gneE50-n gneE51 gneE24-n gneE21 gneE22 gneE38-n gneE40 gneE39 gneE5 gneE45-n gneE46"/>
    </vehicle>
    <vehicle id="39" depart="3.24">
        <route edges="gneE33-n gneE32-n"/>
    </vehicle>
    <vehicle id="40" depart="3.33">
        <route edges="gneE50-n gneE51 gneE24-n gneE21 gneE22 gneE38-n gneE40 gneE39 gneE5 gneE45-n gneE46 gneE28 gneE29 gneE51-n gneE50 gneE34-n gneE33-n"/>
    </vehicle>
    <vehicle id="41" depart="3.41">
        <route edges="gneE51-n gneE50 gneE23 gneE12-n gneE11-n gneE69-n gneE68-n"/>
    </vehicle>
    <vehicle id="42" depart="3.49">
        <route edges="gneE42-n gneE22-n gneE21-n gneE24 gneE29-n"/>
    </vehicle>
    <vehicle id="43" depart="3.58">
        <route edges="gneE9-n gneE60-n gneE55-n gneE54-n gneE53-n gneE47 gneE48"/>
    </vehicle>
    <vehicle id="44" depart="3.66">
        <route edges="gneE23 gneE12-n gneE11-n gneE69-n gneE58-n gneE59-n gneE54-n gneE53-n gneE52-n gneE28 gneE29 gneE24-n gneE21"/>
    </vehicle>
    <vehicle id="45" depart="3.74">
        <route edges="gneE23-n gneE50-n gneE51 gneE24-n gneE21 gneE22 gneE38-n gneE40 gneE39 gneE5 gneE45-n gneE46 gneE28 gneE29 gneE51-n gneE50 gneE34-n gneE33-n gneE32-n gneE53-n"/>
    </vehicle>
    <vehicle id="46" depart="3.83">
        <route edges="gneE63-n gneE66-n gneE43-n"/>
    </vehicle>
    <vehicle id="47" depart="3.91">
        <route edges="gneE21-n gneE24 gneE29-n gneE28-n gneE46-n gneE45 gneE5-n gneE39-n gneE40-n gneE38 gneE42 gneE41-n"/>
    </vehicle>
    <vehicle id="48" depart="3.99">
        <route edges="gneE9-n gneE8-n gneE64-n gneE63-n gneE66-n gneE43-n gneE42-n gneE38-n gneE40 gneE39 gneE5"/>
    </vehicle>
    <vehicle id="49" depart="4.08">
        <route edges="gneE8-n gneE64-n gneE63-n gneE66-n"/>
    </vehicle>
    <vehicle id="50" depart="4.16">
        <route edges="gneE11-n gneE69-n gneE58-n gneE59-n"/>
    </vehicle>
    <vehicle id="51" depart="4.24">
        <route edges="gneE55-n gneE54-n gneE53-n gneE52-n gneE27-n gneE26-n gneE21-n gneE24 gneE29-n gneE28-n gneE46-n gneE45 gneE5-n"/>
    </vehicle>
    <vehicle id="52" depart="4.33">
        <route edges="gneE33-n gneE32-n gneE54"/>
    </vehicle>
    <vehicle id="53" depart="4.41">
        <route edges="gneE23-n gneE50-n gneE51 gneE24-n gneE21 gneE22 gneE38-n gneE40 gneE39 gneE5 gneE45-n gneE46 gneE52 gneE53 gneE54 gneE55 gneE67-n gneE66-n gneE43-n gneE42-n gneE22-n gneE26 gneE27 gneE46-n gneE45"/>
    </vehicle>
    <vehicle id="54" depart="4.49">
        <route edges="gneE45-n gneE46 gneE52 gneE53 gneE54 gneE59 gneE70-n"/>
    </vehicle>
    <vehicle id="55" depart="4.58">
        <route edges="gneE67-n gneE66-n gneE46 gneE28 gneE29 gneE51-n gneE50 gneE34-n gneE33-n"/>
    </vehicle>
    <vehicle id="56" depart="4.66">
        <route edges="gneE48 gneE50 gneE34-n gneE33-n gneE32-n gneE53-n gneE52-n gneE27-n"/>
    </vehicle>
    <vehicle id="57" depart="4.74">
        <route edges="gneE69 gneE11 gneE12 gneE23-n gneE50-n gneE51 gneE24-n gneE21 gneE22 gneE38-n gneE40 gneE39 gneE5 gneE45-n gneE66 gneE67"/>
    </vehicle>
    <vehicle id="58" depart="4.83">
        <route edges="gneE38 gneE22-n gneE26 gneE27 gneE52 gneE53 gneE54"/>
    </vehicle>
    <vehicle id="59" depart="4.91">
        <route edges="gneE52-n gneE27-n gneE26-n"/>
    </vehicle>
    <vehicle id="60" depart="4.99">
        <route edges="gneE60-n gneE55-n gneE54-n gneE53-n gneE52-n gneE27-n gneE26-n gneE21-n gneE24 gneE29-n gneE28-n gneE46-n gneE45 gneE5-n"/>
    </vehicle>
    <vehicle id="61" depart="5.08">
        <route edges="gneE63 gneE65-n gneE6-n gneE45-n gneE46 gneE28 gneE29 gneE24-n gneE21 gneE22 gneE38-n gneE40 gneE39 gneE5"/>
    </vehicle>
    <vehicle id="62" depart="5.16">
        <route edges="gneE11 gneE12 gneE23-n gneE50-n gneE51 gneE24-n gneE21 gneE22 gneE38-n gneE40 gneE39"/>
    </vehicle>
    <vehicle id="63" depart="5.24">
        <route edges="gneE11-n gneE69-n"/>
    </vehicle>
    <vehicle id="64" depart="5.32">
        <route edges="gneE67-n gneE66-n gneE43-n gneE42-n gneE38-n gneE40 gneE39 gneE5 gneE45-n gneE66 gneE63 gneE65-n"/>
    </vehicle>
    <vehicle id="65" depart="5.41">
        <route edges="gneE38-n gneE40 gneE39 gneE5 gneE45-n gneE46 gneE28 gneE29 gneE51-n gneE48-n gneE47-n gneE52-n gneE27-n gneE26-n gneE21-n"/>
    </vehicle>
    <vehicle id="66" depart="5.49">
        <route edges="gneE67-n gneE66-n gneE46 gneE52 gneE53 gneE54 gneE59 gneE70-n"/>
    </vehicle>
    <vehicle id="67" depart="5.57">
        <route edges="gneE22-n gneE21-n gneE24 gneE51-n gneE50 gneE34-n gneE33-n gneE32-n gneE53-n gneE47"/>
    </vehicle>
    <vehicle id="68" depart="5.66">
        <route edges="gneE22 gneE38-n gneE40 gneE39 gneE5 gneE45-n gneE66 gneE67 gneE60"/>
    </vehicle>
    <vehicle id="69" depart="5.74">
        <route edges="gneE60-n gneE55-n gneE54-n gneE53-n gneE52-n gneE28 gneE29 gneE24-n"/>
    </vehicle>
    <vehicle id="70" depart="5.82">
        <route edges="gneE46-n gneE43-n gneE42-n gneE22-n gneE21-n gneE24 gneE51-n gneE50"/>
    </vehicle>
    <vehicle id="71" depart="5.91">
        <route edges="gneE33-n gneE32-n gneE54 gneE55 gneE60 gneE8-n gneE64-n gneE63-n gneE67"/>
    </vehicle>
    <vehicle id="72" depart="5.99">
        <route edges="gneE43-n gneE42-n gneE38-n gneE40 gneE39 gneE5 gneE45-n gneE46 gneE28 gneE29"/>
    </vehicle>
    <vehicle id="73" depart="6.07">
        <route edges="gneE5-n gneE39-n gneE41 gneE43 gneE45 gneE6"/>
    </vehicle>
    <vehicle id="74" depart="6.16">
        <route edges="gneE28-n gneE46-n gneE43-n gneE42-n gneE38-n"/>
    </vehicle>
    <vehicle id="75" depart="6.24">
        <route edges="gneE9-n gneE60-n gneE55-n gneE54-n"/>
    </vehicle>
    <vehicle id="76" depart="6.32">
        <route edges="gneE45 gneE5-n gneE39-n gneE40-n gneE38 gneE22-n gneE21-n gneE24 gneE51-n gneE48-n"/>
    </vehicle>
    <vehicle id="77" depart="6.41">
        <route edges="gneE24 gneE29-n"/>
    </vehicle>
    <vehicle id="78" depart="6.49">
        <route edges="gneE39-n gneE40-n gneE38 gneE22-n gneE21-n gneE24 gneE51-n"/>
    </vehicle>
    <vehicle id="79" depart="6.57">
        <route edges="gneE32 gneE33 gneE34 gneE23 gneE12-n gneE11-n gneE69-n gneE58-n gneE59-n gneE54-n gneE53-n gneE52-n gneE27-n gneE26-n gneE21-n gneE24 gneE29-n"/>
    </vehicle>
    <vehicle id="80" depart="6.66">
        <route edges="gneE22 gneE38-n gneE40 gneE39 gneE5 gneE45-n gneE46 gneE28 gneE29 gneE51-n gneE50 gneE34-n gneE33-n gneE32-n gneE53-n"/>
    </vehicle>
    <vehicle id="81" depart="6.74">
        <route edges="gneE32 gneE33 gneE34 gneE23 gneE12-n gneE11-n gneE69-n gneE68-n"/>
    </vehicle>
    <vehicle id="82" depart="6.82">
        <route edges="gneE66-n gneE46 gneE28 gneE29 gneE24-n gneE21 gneE22"/>
    </vehicle>
    <vehicle id="83" depart="6.91">
        <route edges="gneE32 gneE33 gneE34 gneE23 gneE12-n gneE11-n gneE69-n gneE58-n gneE70-n gneE67-n gneE66-n gneE46 gneE52 gneE53 gneE54 gneE55"/>
    </vehicle>
    <vehicle id="84" depart="6.99">
        <route edges="gneE29 gneE24-n"/>
    </vehicle>
    <vehicle id="85" depart="7.07">
        <route edges="gneE70 gneE58 gneE69 gneE11 gneE12 gneE23-n gneE50-n gneE51"/>
    </vehicle>
    <vehicle id="86" depart="7.16">
        <route edges="gneE46-n gneE45 gneE5-n gneE39-n gneE41 gneE43 gneE66 gneE67 gneE60 gneE8-n gneE64-n gneE63-n"/>
    </vehicle>
    <vehicle id="87" depart="7.24">
        <route edges="gneE64-n gneE65-n gneE6-n gneE45-n gneE46 gneE28"/>
    </vehicle>
    <vehicle id="88" depart="7.32">
        <route edges="gneE23 gneE12-n gneE11-n gneE69-n gneE58-n gneE70-n gneE67-n gneE66-n gneE43-n"/>
    </vehicle>
    <vehicle id="89" depart="7.40">
        <route edges="gneE43-n gneE42-n gneE22-n gneE26 gneE27 gneE46-n"/>
    </vehicle>
    <vehicle id="90" depart="7.49">
        <route edges="gneE6 gneE65 gneE64 gneE8 gneE9 gneE68 gneE69 gneE11 gneE12 gneE23-n gneE50-n gneE51 gneE24-n gneE21 gneE22 gneE38-n gneE40 gneE39 gneE5 gneE45-n gneE46 gneE52 gneE53 gneE54 gneE59 gneE70-n gneE55-n"/>
    </vehicle>
    <vehicle id="91" depart="7.57">
        <route edges="gneE9 gneE68 gneE69 gneE11 gneE12 gneE23-n gneE50-n gneE51 gneE24-n gneE21 gneE22 gneE38-n gneE40 gneE39 gneE5 gneE45-n gneE46 gneE28 gneE29 gneE51-n gneE50 gneE23"/>
    </vehicle>
    <vehicle id="92" depart="7.65">
        <route edges="gneE42-n gneE22-n gneE26 gneE27 gneE46-n gneE45 gneE5-n gneE39-n"/>
    </vehicle>
    <vehicle id="93" depart="7.74">
        <route edges="gneE66-n gneE46 gneE28 gneE29 gneE51-n gneE50 gneE34-n gneE33-n gneE32-n"/>
    </vehicle>
    <vehicle id="94" depart="7.82">
        <route edges="gneE28 gneE29 gneE24-n gneE21 gneE22 gneE38-n gneE40 gneE39 gneE5 gneE45-n"/>
    </vehicle>
    <vehicle id="95" depart="7.90">
        <route edges="gneE43-n gneE42-n gneE22-n gneE26 gneE27 gneE52 gneE53 gneE54 gneE59 gneE70-n gneE55-n gneE54-n gneE32 gneE33 gneE34"/>
    </vehicle>
    <vehicle id="96" depart="7.99">
        <route edges="gneE32-n gneE53-n gneE47 gneE48 gneE50 gneE23 gneE12-n gneE11-n gneE69-n"/>
    </vehicle>
    <vehicle id="97" depart="8.07">
        <route edges="gneE45 gneE5-n gneE39-n gneE40-n gneE38 gneE22-n gneE26 gneE27 gneE52 gneE53 gneE54 gneE55 gneE67-n gneE66-n"/>
    </vehicle>
    <vehicle id="98" depart="8.15">
        <route edges="gneE50 gneE34-n gneE33-n gneE32-n gneE53-n gneE52-n gneE28 gneE29 gneE24-n gneE21"/>
    </vehicle>
    <vehicle id="99" depart="8.24">
        <route edges="gneE9-n gneE8-n gneE64-n gneE65-n"/>
    </vehicle>
    <vehicle id="100" depart="8.32">
        <route edges="gneE8-n gneE64-n gneE65-n gneE6-n gneE45-n gneE46 gneE28 gneE29 gneE51-n gneE50 gneE23 gneE12-n gneE11-n gneE69-n"/>
    </vehicle>
    <vehicle id="101" depart="8.40">
        <route edges="gneE66 gneE67 gneE60 gneE8-n gneE64-n gneE63-n gneE66-n gneE43-n gneE42-n gneE22-n gneE26 gneE27"/>
    </vehicle>
    <vehicle id="102" depart="8.49">
        <route edges="gneE47 gneE48 gneE50 gneE34-n gneE33-n gneE32-n gneE53-n gneE52-n gneE28 gneE29"/>
    </vehicle>
    <vehicle id="103" depart="8.57">
        <route edges="gneE42-n gneE22-n gneE21-n"/>
    </vehicle>
    <vehicle id="104" depart="8.65">
        <route edges="gneE41-n gneE39 gneE5 gneE6 gneE65 gneE64 gneE8 gneE9"/>
    </vehicle>
    <vehicle id="105" depart="8.74">
        <route edges="gneE33-n gneE32-n gneE53-n gneE52-n gneE27-n gneE26-n gneE22 gneE38-n gneE40 gneE39 gneE5 gneE45-n gneE66 gneE63"/>
    </vehicle>
    <vehicle id="106" depart="8.82">
        <route edges="gneE46 gneE52 gneE53 gneE54 gneE55 gneE67-n gneE66-n gneE43-n"/>
    </vehicle>
    <vehicle id="107" depart="8.90">
        <route edges="gneE8 gneE9 gneE68 gneE69 gneE11 gneE12 gneE23-n gneE50-n gneE51 gneE24-n gneE21 gneE22 gneE38-n gneE40 gneE39 gneE5 gneE45-n gneE66 gneE67 gneE70 gneE58 gneE68-n gneE9-n"/>
    </vehicle>
    <vehicle id="108" depart="8.99">
        <route edges="gneE50 gneE23 gneE12-n gneE11-n gneE69-n gneE58-n gneE59-n"/>
    </vehicle>
    <vehicle id="109" depart="9.07">
        <route edges="gneE26-n gneE21-n gneE24 gneE29-n gneE28-n gneE46-n gneE45 gneE5-n gneE39-n gneE40-n gneE38"/>
    </vehicle>
    <vehicle id="110" depart="9.15">
        <route edges="gneE8-n gneE64-n gneE63-n gneE67 gneE70 gneE58 gneE69 gneE11 gneE12 gneE23-n gneE50-n gneE51"/>
    </vehicle>
    <vehicle id="111" depart="9.24">
        <route edges="gneE5-n gneE39-n gneE41 gneE43 gneE66 gneE63 gneE65-n gneE6-n"/>
    </vehicle>
    <vehicle id="112" depart="9.32">
        <route edges="gneE21-n gneE24 gneE51-n"/>
    </vehicle>
    <vehicle id="113" depart="9.40">
        <route edges="gneE48 gneE50 gneE34-n gneE33-n gneE32-n gneE54 gneE55 gneE67-n gneE66-n"/>
    </vehicle>
    <vehicle id="114" depart="9.48">
        <route edges="gneE26-n gneE22 gneE38-n gneE40 gneE39 gneE5 gneE6 gneE65 gneE64 gneE8"/>
    </vehicle>
    <vehicle id="115" depart="9.57">
        <route edges="gneE22-n gneE21-n gneE24 gneE51-n gneE48-n gneE47-n gneE52-n gneE28"/>
    </vehicle>
    <vehicle id="116" depart="9.65">
        <route edges="gneE52 gneE53 gneE54 gneE59 gneE70-n gneE55-n"/>
    </vehicle>
    <vehicle id="117" depart="9.73">
        <route edges="gneE32 gneE33 gneE34 gneE23 gneE12-n gneE11-n gneE69-n gneE58-n gneE59-n gneE54-n gneE53-n gneE52-n gneE27-n gneE26-n gneE21-n gneE24"/>
    </vehicle>
    <vehicle id="118" depart="9.82">
        <route edges="gneE68 gneE69 gneE11 gneE12 gneE23-n gneE50-n gneE51 gneE24-n gneE21 gneE22 gneE38-n gneE40 gneE39 gneE5 gneE45-n gneE46 gneE28 gneE29 gneE51-n gneE50 gneE34-n gneE33-n gneE32-n"/>
    </vehicle>
    <vehicle id="119" depart="9.90">
        <route edges="gneE52 gneE53"/>
    </vehicle>
    <vehicle id="120" depart="9.98">
        <route edges="gneE43 gneE45 gneE5-n gneE39-n gneE40-n gneE38 gneE22-n gneE21-n gneE24 gneE51-n"/>
    </vehicle>
    <vehicle id="121" depart="10.07">
        <route edges="gneE5 gneE45-n gneE66 gneE67 gneE70"/>
    </vehicle>
    <vehicle id="122" depart="10.15">
        <route edges="gneE28-n gneE27-n gneE26-n gneE21-n gneE24 gneE51-n gneE50 gneE23 gneE12-n gneE11-n gneE69-n gneE58-n gneE59-n"/>
    </vehicle>
    <vehicle id="123" depart="10.23">
        <route edges="gneE32-n gneE53-n gneE52-n gneE27-n gneE26-n gneE21-n gneE24 gneE29-n gneE28-n gneE46-n gneE45 gneE5-n gneE39-n gneE40-n gneE38 gneE42"/>
    </vehicle>
    <vehicle id="124" depart="10.32">
        <route edges="gneE55-n gneE54-n gneE53-n gneE52-n gneE27-n gneE26-n gneE21-n gneE24 gneE29-n gneE28-n gneE46-n gneE45 gneE5-n gneE39-n gneE40-n gneE38"/>
    </vehicle>
    <vehicle id="125" depart="10.40">
        <route edges="gneE38-n gneE40 gneE39 gneE5 gneE45-n gneE66 gneE67 gneE60"/>
    </vehicle>
    <vehicle id="126" depart="10.48">
        <route edges="gneE22 gneE38-n gneE40 gneE39 gneE5 gneE45-n gneE46"/>
    </vehicle>
    <vehicle id="127" depart="10.57">
        <route edges="gneE9-n"/>
    </vehicle>
    <vehicle id="128" depart="10.65">
        <route edges="gneE22 gneE38-n gneE40 gneE39 gneE5 gneE45-n gneE46 gneE28 gneE29"/>
    </vehicle>
    <vehicle id="129" depart="10.73">
        <route edges="gneE33-n gneE32-n gneE54 gneE59 gneE58 gneE68-n gneE9-n gneE60-n gneE70"/>
    </vehicle>
    <vehicle id="130" depart="10.82">
        <route edges="gneE67-n"/>
    </vehicle>
    <vehicle id="131" depart="10.90">
        <route edges="gneE41 gneE42-n gneE22-n gneE21-n gneE24 gneE29-n gneE28-n gneE27-n gneE26-n"/>
    </vehicle>
    <vehicle id="132" depart="10.98">
        <route edges="gneE65-n gneE6-n gneE45-n gneE46 gneE28 gneE29 gneE51-n gneE50 gneE23 gneE12-n gneE11-n gneE69-n gneE58-n"/>
    </vehicle>
    <vehicle id="133" depart="11.07">
        <route edges="gneE52-n gneE28 gneE29 gneE51-n gneE48-n gneE47-n gneE53 gneE54 gneE55 gneE60 gneE9"/>
    </vehicle>
    <vehicle id="134" depart="11.15">
        <route edges="gneE54-n gneE53-n gneE47 gneE48 gneE50 gneE34-n gneE33-n gneE32-n gneE54 gneE59 gneE58 gneE69 gneE11"/>
    </vehicle>
    <vehicle id="135" depart="11.23">
        <route edges="gneE64-n gneE63-n gneE66-n gneE43-n gneE42-n gneE22-n gneE26 gneE27 gneE46-n gneE45 gneE5-n gneE39-n gneE40-n gneE38"/>
    </vehicle>
    <vehicle id="136" depart="11.32">
        <route edges="gneE55 gneE60 gneE8-n gneE64-n gneE63-n gneE67 gneE70"/>
    </vehicle>
    <vehicle id="137" depart="11.40">
        <route edges="gneE24-n gneE21 gneE22 gneE38-n gneE40 gneE39 gneE5 gneE45-n gneE46 gneE28 gneE29 gneE51-n gneE48-n gneE47-n gneE52-n gneE27-n gneE26-n gneE21-n gneE24"/>
    </vehicle>
    <vehicle id="138" depart="11.48">
        <route edges="gneE23-n gneE50-n gneE51 gneE24-n gneE21 gneE22 gneE38-n gneE40 gneE39 gneE5 gneE45-n gneE46 gneE28 gneE29 gneE51-n gneE50"/>
    </vehicle>
    <vehicle id="139" depart="11.56">
        <route edges="gneE33-n gneE32-n gneE53-n gneE52-n"/>
    </vehicle>
    <vehicle id="140" depart="11.65">
        <route edges="gneE59-n gneE54-n gneE53-n gneE52-n gneE27-n gneE26-n gneE21-n gneE24 gneE29-n gneE28-n"/>
    </vehicle>
    <vehicle id="141" depart="11.73">
        <route edges="gneE53-n gneE47 gneE48 gneE50 gneE34-n gneE33-n"/>
    </vehicle>
    <vehicle id="142" depart="11.81">
        <route edges="gneE47 gneE48 gneE50 gneE23 gneE12-n gneE11-n gneE69-n gneE68-n"/>
    </vehicle>
    <vehicle id="143" depart="11.90">
        <route edges="gneE66 gneE63 gneE65-n gneE6-n gneE45-n gneE46 gneE28 gneE29 gneE51-n gneE50 gneE23"/>
    </vehicle>
    <vehicle id="144" depart="11.98">
        <route edges="gneE43-n gneE42-n gneE22-n gneE26 gneE27 gneE52 gneE53 gneE54 gneE59 gneE70-n gneE55-n gneE54-n gneE32 gneE33 gneE34"/>
    </vehicle>
    <vehicle id="145" depart="12.06">
        <route edges="gneE11 gneE12 gneE23-n gneE50-n gneE51 gneE24-n gneE21 gneE22 gneE38-n gneE40 gneE39 gneE5 gneE45-n gneE66 gneE67 gneE70 gneE58 gneE68-n gneE9-n gneE60-n"/>
    </vehicle>
    <vehicle id="146" depart="12.15">
        <route edges="gneE54 gneE59 gneE70-n gneE55-n gneE54-n gneE53-n gneE47 gneE48 gneE50 gneE34-n gneE33-n"/>
    </vehicle>
    <vehicle id="147" depart="12.23">
        <route edges="gneE6-n gneE45-n gneE46 gneE28 gneE29 gneE51-n gneE50"/>
    </vehicle>
    <vehicle id="148" depart="12.31">
        <route edges="gneE43-n gneE42-n gneE38-n gneE40 gneE39 gneE5 gneE45-n gneE66 gneE67 gneE70 gneE58 gneE69 gneE11"/>
    </vehicle>
    <vehicle id="149" depart="12.40">
        <route edges="gneE22 gneE38-n gneE40 gneE39 gneE5 gneE45-n gneE46 gneE52 gneE53 gneE54 gneE55 gneE67-n"/>
    </vehicle>
    <vehicle id="150" depart="12.48">
        <route edges="gneE68-n gneE9-n gneE60-n gneE55-n gneE54-n gneE53-n gneE47 gneE48 gneE50"/>
    </vehicle>
    <vehicle id="151" depart="12.56">
        <route edges="gneE65-n gneE6-n gneE45-n gneE46 gneE28 gneE29 gneE51-n"/>
    </vehicle>
    <vehicle id="152" depart="12.65">
        <route edges="gneE26-n gneE21-n gneE24 gneE51-n gneE48-n gneE47-n gneE52-n gneE28 gneE29 gneE24-n"/>
    </vehicle>
    <vehicle id="153" depart="12.73">
        <route edges="gneE38-n gneE40 gneE39 gneE5 gneE45-n gneE66 gneE67 gneE70 gneE58 gneE68-n"/>
    </vehicle>
    <vehicle id="154" depart="12.81">
        <route edges="gneE64 gneE8 gneE9 gneE68 gneE69 gneE11 gneE12 gneE23-n gneE50-n gneE51 gneE24-n gneE21 gneE22 gneE38-n gneE40 gneE39 gneE5 gneE45-n gneE46 gneE52 gneE53 gneE54 gneE55 gneE67-n gneE66-n"/>
    </vehicle>
    <vehicle id="155" depart="12.90">
        <route edges="gneE68-n gneE9-n gneE60-n gneE55-n gneE54-n gneE53-n gneE52-n gneE28 gneE29"/>
    </vehicle>
    <vehicle id="156" depart="12.98">
        <route edges="gneE32-n gneE54 gneE59 gneE58 gneE69 gneE11 gneE12 gneE23-n"/>
    </vehicle>
    <vehicle id="157" depart="13.06">
        <route edges="gneE63 gneE65-n gneE6-n gneE45-n gneE46 gneE52 gneE53 gneE54 gneE55 gneE67-n"/>
    </vehicle>
    <vehicle id="158" depart="13.15">
        <route edges="gneE42-n gneE22-n gneE26 gneE27 gneE52 gneE53"/>
    </vehicle>
    <vehicle id="159" depart="13.23">
        <route edges="gneE26-n gneE21-n gneE24 gneE51-n gneE50 gneE23 gneE12-n gneE11-n gneE69-n"/>
    </vehicle>
    <vehicle id="160" depart="13.31">
        <route edges="gneE67 gneE60 gneE8-n"/>
    </vehicle>
    <vehicle id="161" depart="13.40">
        <route edges="gneE64-n gneE65-n gneE6-n gneE45-n gneE46 gneE52 gneE53 gneE54 gneE55 gneE67-n"/>
    </vehicle>
    <vehicle id="162" depart="13.48">
        <route edges="gneE12 gneE23-n gneE50-n gneE51 gneE24-n gneE21 gneE22 gneE38-n gneE40 gneE39 gneE5 gneE6"/>
    </vehicle>
    <vehicle id="163" depart="13.56">
        <route edges="gneE39-n gneE40-n gneE38 gneE22-n gneE21-n gneE24 gneE51-n gneE50 gneE23 gneE12-n gneE11-n gneE69-n"/>
    </vehicle>
    <vehicle id="164" depart="13.64">
        <route edges="gneE64 gneE8 gneE9 gneE68 gneE69 gneE11 gneE12 gneE23-n gneE50-n gneE51 gneE24-n gneE21 gneE22 gneE38-n gneE40 gneE39 gneE5 gneE45-n gneE66 gneE67"/>
    </vehicle>
    <vehicle id="165" depart="13.73">
        <route edges="gneE64-n gneE65-n gneE6-n gneE45-n gneE46 gneE28 gneE29 gneE51-n gneE50 gneE34-n gneE33-n"/>
    </vehicle>
    <vehicle id="166" depart="13.81">
        <route edges="gneE63-n gneE67 gneE70 gneE58 gneE69 gneE11 gneE12 gneE23-n"/>
    </vehicle>
    <vehicle id="167" depart="13.89">
        <route edges="gneE67 gneE60 gneE8-n gneE64-n gneE63-n gneE66-n"/>
    </vehicle>
    <vehicle id="168" depart="13.98">
        <route edges="gneE29-n gneE28-n gneE46-n gneE45 gneE5-n gneE39-n gneE41 gneE43 gneE66 gneE67 gneE60 gneE8-n gneE64-n"/>
    </vehicle>
    <vehicle id="169" depart="14.06">
        <route edges="gneE46 gneE52 gneE53 gneE54 gneE55 gneE67-n gneE66-n gneE43-n gneE42-n gneE22-n gneE26 gneE27 gneE46-n gneE45 gneE5-n gneE39-n gneE40-n gneE38"/>
    </vehicle>
    <vehicle id="170" depart="14.14">
        <route edges="gneE63-n gneE66-n gneE46 gneE52 gneE53 gneE54 gneE59 gneE70-n gneE55-n gneE54-n gneE32"/>
    </vehicle>
    <vehicle id="171" depart="14.23">
        <route edges="gneE12 gneE23-n gneE50-n gneE51 gneE24-n gneE21 gneE22 gneE38-n gneE40 gneE39 gneE5 gneE45-n gneE46 gneE28"/>
    </vehicle>
    <vehicle id="172" depart="14.31">
        <route edges="gneE39 gneE5 gneE45-n gneE66 gneE67"/>
    </vehicle>
    <vehicle id="173" depart="14.39">
        <route edges="gneE8-n gneE64-n gneE65-n gneE6-n gneE45-n gneE46 gneE52 gneE53 gneE54 gneE59 gneE70-n gneE55-n gneE54-n gneE32 gneE33 gneE34"/>
    </vehicle>
    <vehicle id="174" depart="14.48">
        <route edges="gneE54 gneE55 gneE67-n gneE66-n gneE43-n gneE42-n"/>
    </vehicle>
    <vehicle id="175" depart="14.56">
        <route edges="gneE9 gneE68 gneE69 gneE11 gneE12 gneE23-n gneE50-n gneE51 gneE24-n gneE21 gneE22 gneE38-n gneE40 gneE39 gneE5 gneE45-n gneE46 gneE52 gneE53 gneE54 gneE55 gneE67-n gneE66-n gneE43-n gneE42-n gneE22-n gneE26 gneE27 gneE46-n gneE45 gneE5-n"/>
    </vehicle>
    <vehicle id="176" depart="14.64">