<?xml version="1.0" encoding="UTF-8"?>

<!-- generated on Mon May 24 09:21:23 2021 by Eclipse SUMO duarouter Version 1.8.0
<configuration xmlns:xsi="http://www.w3.org/2001/XMLSchema-instance" xsi:noNamespaceSchemaLocation="http://sumo.dlr.de/xsd/duarouterConfiguration.xsd">

    <input>
        <net-file value="Diamond_allstop.net.xml"/>
        <route-files value="DiamondRdFringe.trips.xml"/>
    </input>

    <output>
        <output-file value="DiamondRdFringe.trips.xml.tmp"/>
        <write-trips value="true"/>
    </output>

    <processing>
        <remove-loops value="true"/>
    </processing>

    <time>
        <begin value="0"/>
        <end value="1200"/>
    </time>

    <report>
        <no-warnings value="true"/>
        <ignore-errors value="true"/>
        <no-step-log value="true"/>
    </report>

</configuration>
-->

<routes xmlns:xsi="http://www.w3.org/2001/XMLSchema-instance" xsi:noNamespaceSchemaLocation="http://sumo.dlr.de/xsd/routes_file.xsd">
    <trip id="0" depart="0.00" from="gneE64-n" to="gneE33"/>
    <trip id="1" depart="0.25" from="gneE66-n" to="gneE37"/>
    <trip id="3" depart="0.75" from="gneE64-n" to="gneE63"/>
    <trip id="5" depart="1.25" from="gneE65-n" to="gneE32"/>
    <trip id="6" depart="1.50" from="gneE65-n" to="gneE64"/>
    <trip id="7" depart="1.75" from="gneE66-n" to="gneE54-n"/>
    <trip id="8" depart="2.00" from="gneE65-n" to="gneE63"/>
    <trip id="9" depart="2.25" from="gneE65-n" to="gneE64"/>
    <trip id="10" depart="2.50" from="gneE63-n" to="gneE66"/>
    <trip id="12" depart="3.00" from="gneE65-n" to="gneE64"/>
    <trip id="13" depart="3.25" from="gneE65-n" to="gneE63"/>
    <trip id="14" depart="3.50" from="gneE64-n" to="gneE34"/>
    <trip id="15" depart="3.75" from="gneE64-n" to="gneE55-n"/>
    <trip id="16" depart="4.00" from="gneE51" to="gneE66"/>
    <trip id="18" depart="4.50" from="gneE66-n" to="gneE64"/>
    <trip id="19" depart="4.75" from="gneE63-n" to="gneE64"/>
    <trip id="20" depart="5.00" from="gneE48" to="gneE66"/>
    <trip id="21" depart="5.25" from="gneE66-n" to="gneE53-n"/>
    <trip id="22" depart="5.50" from="gneE64-n" to="gneE57"/>
    <trip id="23" depart="5.75" from="gneE66-n" to="gneE61"/>
    <trip id="25" depart="6.25" from="gneE63-n" to="gneE66"/>
    <trip id="26" depart="6.50" from="gneE66-n" to="gneE63"/>
    <trip id="27" depart="6.75" from="gneE40" to="gneE64"/>
    <trip id="28" depart="7.00" from="gneE65-n" to="gneE59"/>
    <trip id="29" depart="7.25" from="gneE66-n" to="gneE63"/>
    <trip id="30" depart="7.50" from="gneE66-n" to="gneE65"/>
    <trip id="31" depart="7.75" from="gneE32" to="gneE64"/>
    <trip id="32" depart="8.00" from="gneE64-n" to="gneE63"/>
    <trip id="33" depart="8.25" from="gneE51" to="gneE64"/>
    <trip id="34" depart="8.50" from="gneE61" to="gneE66"/>
    <trip id="35" depart="8.75" from="gneE66-n" to="gneE51"/>
    <trip id="36" depart="9.00" from="gneE63-n" to="gneE44"/>
    <trip id="37" depart="9.25" from="gneE53" to="gneE64"/>
    <trip id="38" depart="9.50" from="gneE64-n" to="gneE44"/>
    <trip id="39" depart="9.75" from="gneE65-n" to="gneE63"/>
    <trip id="40" depart="10.00" from="gneE65-n" to="gneE63"/>
    <trip id="41" depart="10.25" from="gneE33" to="gneE66"/>
    <trip id="42" depart="10.50" from="gneE66-n" to="gneE65"/>
    <trip id="43" depart="10.75" from="gneE38" to="gneE63"/>
    <trip id="44" depart="11.00" from="gneE37" to="gneE65"/>
    <trip id="45" depart="11.25" from="gneE65-n" to="gneE40"/>
    <trip id="46" depart="11.50" from="gneE51" to="gneE66"/>
    <trip id="47" depart="11.75" from="gneE63-n" to="gneE64"/>
    <trip id="48" depart="12.00" from="gneE66-n" to="gneE64"/>
    <trip id="49" depart="12.25" from="gneE60" to="gneE63"/>
    <trip id="51" depart="12.75" from="gneE37" to="gneE64"/>
    <trip id="53" depart="13.25" from="gneE65-n" to="gneE37"/>
    <trip id="55" depart="13.75" from="gneE66-n" to="gneE63"/>
    <trip id="56" depart="14.00" from="gneE62" to="gneE65"/>
    <trip id="57" depart="14.25" from="gneE65-n" to="gneE47"/>
    <trip id="58" depart="14.50" from="gneE66-n" to="gneE39"/>
    <trip id="59" depart="14.75" from="gneE65-n" to="gneE49"/>
    <trip id="60" depart="15.00" from="gneE49" to="gneE66"/>
    <trip id="61" depart="15.25" from="gneE60" to="gneE65"/>
    <trip id="62" depart="15.50" from="gneE63-n" to="gneE35"/>
    <trip id="63" depart="15.75" from="gneE66-n" to="gneE65"/>
    <trip id="65" depart="16.25" from="gneE63-n" to="gneE48"/>
    <trip id="67" depart="16.75" from="gneE51" to="gneE65"/>
    <trip id="68" depart="17.00" from="gneE63-n" to="gneE64"/>
    <trip id="69" depart="17.25" from="gneE66-n" to="gneE63"/>
    <trip id="70" depart="17.50" from="gneE63-n" to="gneE65"/>
    <trip id="71" depart="17.75" from="gneE36" to="gneE63"/>
    <trip id="72" depart="18.00" from="gneE63-n" to="gneE65"/>
    <trip id="73" depart="18.25" from="gneE44" to="gneE66"/>
    <trip id="74" depart="18.50" from="gneE63-n" to="gneE64"/>
    <trip id="75" depart="18.75" from="gneE66-n" to="gneE37"/>
    <trip id="76" depart="19.00" from="gneE63-n" to="gneE64"/>
    <trip id="77" depart="19.25" from="gneE58" to="gneE63"/>
    <trip id="78" depart="19.50" from="gneE63-n" to="gneE66"/>
    <trip id="82" depart="20.50" from="gneE51" to="gneE66"/>
    <trip id="83" depart="20.75" from="gneE65-n" to="gneE64"/>
    <trip id="84" depart="21.00" from="gneE64-n" to="gneE66"/>
    <trip id="85" depart="21.25" from="gneE64-n" to="gneE32"/>
    <trip id="86" depart="21.50" from="gneE65-n" to="gneE53"/>
    <trip id="87" depart="21.75" from="gneE64-n" to="gneE66"/>
    <trip id="88" depart="22.00" from="gneE40" to="gneE63"/>
    <trip id="89" depart="22.25" from="gneE47-n" to="gneE63"/>
    <trip id="90" depart="22.50" from="gneE64-n" to="gneE47-n"/>
    <trip id="91" depart="22.75" from="gneE64-n" to="gneE51"/>
    <trip id="92" depart="23.00" from="gneE63-n" to="gneE66"/>
    <trip id="93" depart="23.25" from="gneE65-n" to="gneE39"/>
    <trip id="94" depart="23.50" from="gneE32" to="gneE65"/>
    <trip id="96" depart="24.00" from="gneE65-n" to="gneE63"/>
    <trip id="97" depart="24.25" from="gneE49" to="gneE66"/>
    <trip id="98" depart="24.50" from="gneE66-n" to="gneE63"/>
    <trip id="99" depart="24.75" from="gneE65-n" to="gneE63"/>
    <trip id="101" depart="25.25" from="gneE66-n" to="gneE47-n"/>
    <trip id="102" depart="25.50" from="gneE65-n" to="gneE66"/>
    <trip id="103" depart="25.75" from="gneE57" to="gneE64"/>
    <trip id="104" depart="26.00" from="gneE44" to="gneE66"/>
    <trip id="105" depart="26.25" from="gneE65-n" to="gneE66"/>
    <trip id="106" depart="26.50" from="gneE65-n" to="gneE66"/>
    <trip id="107" depart="26.75" from="gneE33" to="gneE64"/>
    <trip id="109" depart="27.25" from="gneE65-n" to="gneE51"/>
    <trip id="110" depart="27.50" from="gneE65-n" to="gneE40"/>
    <trip id="111" depart="27.75" from="gneE66-n" to="gneE65"/>
    <trip id="113" depart="28.25" from="gneE65-n" to="gneE48-n"/>
    <trip id="115" depart="28.75" from="gneE66-n" to="gneE52"/>
    <trip id="116" depart="29.00" from="gneE64-n" to="gneE57"/>
    <trip id="117" depart="29.25" from="gneE66-n" to="gneE63"/>
    <trip id="118" depart="29.50" from="gneE66-n" to="gneE40"/>
    <trip id="119" depart="29.75" from="gneE66-n" to="gneE45-n"/>
    <trip id="120" depart="30.00" from="gneE66-n" to="gneE51"/>
    <trip id="121" depart="30.25" from="gneE64-n" to="gneE53-n"/>
    <trip id="122" depart="30.50" from="gneE64-n" to="gneE63"/>
    <trip id="123" depart="30.75" from="gneE56-n" to="gneE63"/>
    <trip id="124" depart="31.00" from="gneE49-n" to="gneE64"/>
    <trip id="125" depart="31.25" from="gneE32" to="gneE66"/>
    <trip id="126" depart="31.50" from="gneE63-n" to="gneE64"/>
    <trip id="127" depart="31.75" from="gneE65-n" to="gneE64"/>
    <trip id="128" depart="32.00" from="gneE64-n" to="gneE54-n"/>
    <trip id="129" depart="32.25" from="gneE53-n" to="gneE65"/>
    <trip id="131" depart="32.75" from="gneE66-n" to="gneE64"/>
    <trip id="132" depart="33.00" from="gneE66-n" to="gneE64"/>
    <trip id="133" depart="33.25" from="gneE53" to="gneE63"/>
    <trip id="134" depart="33.50" from="gneE59" to="gneE63"/>
    <trip id="135" depart="33.75" from="gneE64-n" to="gneE62"/>
    <trip id="136" depart="34.00" from="gneE62" to="gneE66"/>
    <trip id="138" depart="34.50" from="gneE38" to="gneE63"/>
    <trip id="139" depart="34.75" from="gneE64-n" to="gneE54-n"/>
    <trip id="140" depart="35.00" from="gneE64-n" to="gneE48-n"/>
    <trip id="142" depart="35.50" from="gneE65-n" to="gneE37"/>
    <trip id="143" depart="35.75" from="gneE55" to="gneE64"/>
    <trip id="144" depart="36.00" from="gneE47" to="gneE64"/>
    <trip id="145" depart="36.25" from="gneE63-n" to="gneE49"/>
    <trip id="146" depart="36.50" from="gneE64-n" to="gneE32"/>
    <trip id="148" depart="37.00" from="gneE63-n" to="gneE35"/>
    <trip id="150" depart="37.50" from="gneE54-n" to="gneE65"/>
    <trip id="151" depart="37.75" from="gneE64-n" to="gneE66"/>
    <trip id="152" depart="38.00" from="gneE63-n" to="gneE66"/>
    <trip id="153" depart="38.25" from="gneE66-n" to="gneE64"/>
    <trip id="154" depart="38.50" from="gneE64-n" to="gneE63"/>
    <trip id="155" depart="38.75" from="gneE65-n" to="gneE63"/>
    <trip id="156" depart="39.00" from="gneE66-n" to="gneE65"/>
    <trip id="159" depart="39.75" from="gneE65-n" to="gneE63"/>
    <trip id="160" depart="40.00" from="gneE64-n" to="gneE51"/>
    <trip id="161" depart="40.25" from="gneE63-n" to="gneE42"/>
    <trip id="162" depart="40.50" from="gneE48-n" to="gneE64"/>
    <trip id="163" depart="40.75" from="gneE64-n" to="gneE36"/>
    <trip id="164" depart="41.00" from="gneE57" to="gneE63"/>
    <trip id="165" depart="41.25" from="gneE58" to="gneE66"/>
    <trip id="166" depart="41.50" from="gneE63-n" to="gneE64"/>
    <trip id="168" depart="42.00" from="gneE65-n" to="gneE66"/>
    <trip id="169" depart="42.25" from="gneE58" to="gneE65"/>
    <trip id="171" depart="42.75" from="gneE64-n" to="gneE34"/>
    <trip id="172" depart="43.00" from="gneE56-n" to="gneE63"/>
    <trip id="173" depart="43.25" from="gneE56" to="gneE64"/>
    <trip id="174" depart="43.50" from="gneE65-n" to="gneE56"/>
    <trip id="175" depart="43.75" from="gneE33" to="gneE63"/>
    <trip id="176" depart="44.00" from="gneE66-n" to="gneE55"/>
    <trip id="177" depart="44.25" from="gneE64-n" to="gneE65"/>
    <trip id="178" depart="44.50" from="gneE64-n" to="gneE65"/>
    <trip id="179" depart="44.75" from="gneE66-n" to="gneE47-n"/>
    <trip id="180" depart="45.00" from="gneE41" to="gneE64"/>
    <trip id="181" depart="45.25" from="gneE63-n" to="gneE48"/>
    <trip id="182" depart="45.50" from="gneE64-n" to="gneE65"/>
    <trip id="183" depart="45.75" from="gneE45" to="gneE64"/>
    <trip id="184" depart="46.00" from="gneE65-n" to="gneE40"/>
    <trip id="185" depart="46.25" from="gneE65-n" to="gneE66"/>
    <trip id="187" depart="46.75" from="gneE66-n" to="gneE57"/>
    <trip id="188" depart="47.00" from="gneE64-n" to="gneE37"/>
    <trip id="189" depart="47.25" from="gneE39" to="gneE65"/>
    <trip id="190" depart="47.50" from="gneE65-n" to="gneE63"/>
    <trip id="191" depart="47.75" from="gneE41" to="gneE66"/>
    <trip id="192" depart="48.00" from="gneE65-n" to="gneE55"/>
    <trip id="193" depart="48.25" from="gneE63-n" to="gneE54-n"/>
    <trip id="194" depart="48.50" from="gneE40" to="gneE66"/>
    <trip id="195" depart="48.75" from="gneE64-n" to="gneE65"/>
    <trip id="196" depart="49.00" from="gneE64-n" to="gneE60"/>
    <trip id="197" depart="49.25" from="gneE64-n" to="gneE66"/>
    <trip id="198" depart="49.50" from="gneE51" to="gneE65"/>
    <trip id="199" depart="49.75" from="gneE60" to="gneE64"/>
    <trip id="200" depart="50.00" from="gneE51" to="gneE65"/>
    <trip id="201" depart="50.25" from="gneE65-n" to="gneE38"/>
    <trip id="202" depart="50.50" from="gneE66-n" to="gneE37"/>
    <trip id="203" depart="50.75" from="gneE62" to="gneE64"/>
    <trip id="204" depart="51.00" from="gneE65-n" to="gneE45-n"/>
    <trip id="207" depart="51.75" from="gneE64-n" to="gneE51"/>
    <trip id="208" depart="52.00" from="gneE32" to="gneE66"/>
    <trip id="209" depart="52.25" from="gneE38" to="gneE64"/>
    <trip id="210" depart="52.50" from="gneE63-n" to="gneE65"/>
    <trip id="211" depart="52.75" from="gneE63-n" to="gneE65"/>
    <trip id="212" depart="53.00" from="gneE64-n" to="gneE53-n"/>
    <trip id="213" depart="53.25" from="gneE63-n" to="gneE62"/>
    <trip id="214" depart="53.50" from="gneE63-n" to="gneE59"/>
    <trip id="215" depart="53.75" from="gneE65-n" to="gneE54-n"/>
    <trip id="216" depart="54.00" from="gneE64-n" to="gneE51"/>
    <trip id="217" depart="54.25" from="gneE63-n" to="gneE65"/>
    <trip id="218" depart="54.50" from="gneE63-n" to="gneE64"/>
    <trip id="219" depart="54.75" from="gneE66-n" to="gneE63"/>
    <trip id="220" depart="55.00" from="gneE63-n" to="gneE51"/>
    <trip id="221" depart="55.25" from="gneE66-n" to="gneE63"/>
    <trip id="222" depart="55.50" from="gneE64-n" to="gneE41"/>
    <trip id="223" depart="55.75" from="gneE66-n" to="gneE63"/>
    <trip id="224" depart="56.00" from="gneE66-n" to="gneE63"/>
    <trip id="225" depart="56.25" from="gneE66-n" to="gneE63"/>
    <trip id="226" depart="56.50" from="gneE65-n" to="gneE57"/>
    <trip id="227" depart="56.75" from="gneE37" to="gneE64"/>
    <trip id="228" depart="57.00" from="gneE63-n" to="gneE53-n"/>
    <trip id="229" depart="57.25" from="gneE66-n" to="gneE41"/>
    <trip id="230" depart="57.50" from="gneE65-n" to="gneE64"/>
    <trip id="231" depart="57.75" from="gneE65-n" to="gneE48-n"/>
    <trip id="232" depart="58.00" from="gneE63-n" to="gneE61"/>
    <trip id="233" depart="58.25" from="gneE60" to="gneE65"/>
    <trip id="234" depart="58.50" from="gneE66-n" to="gneE53-n"/>
    <trip id="235" depart="58.75" from="gneE65-n" to="gneE66"/>
    <trip id="236" depart="59.00" from="gneE64-n" to="gneE44"/>
    <trip id="238" depart="59.50" from="gneE48-n" to="gneE64"/>
    <trip id="239" depart="59.75" from="gneE64-n" to="gneE61"/>
    <trip id="240" depart="60.00" from="gneE64-n" to="gneE66"/>
    <trip id="241" depart="60.25" from="gneE65-n" to="gneE64"/>
    <trip id="242" depart="60.50" from="gneE64-n" to="gneE66"/>
    <trip id="243" depart="60.75" from="gneE59" to="gneE63"/>
    <trip id="244" depart="61.00" from="gneE64-n" to="gneE66"/>
    <trip id="245" depart="61.25" from="gneE65-n" to="gneE37"/>
    <trip id="246" depart="61.50" from="gneE65-n" to="gneE63"/>
    <trip id="247" depart="61.75" from="gneE66-n" to="gneE63"/>
    <trip id="248" depart="62.00" from="gneE63-n" to="gneE38"/>
    <trip id="249" depart="62.25" from="gneE38" to="gneE66"/>
    <trip id="250" depart="62.50" from="gneE65-n" to="gneE63"/>
    <trip id="251" depart="62.75" from="gneE64-n" to="gneE51"/>
    <trip id="252" depart="63.00" from="gneE35" to="gneE65"/>
    <trip id="253" depart="63.25" from="gneE62" to="gneE64"/>
    <trip id="254" depart="63.50" from="gneE66-n" to="gneE45-n"/>
    <trip id="255" depart="63.75" from="gneE63-n" to="gneE64"/>
    <trip id="256" depart="64.00" from="gneE63-n" to="gneE38"/>
    <trip id="257" depart="64.25" from="gneE64-n" to="gneE65"/>
    <trip id="259" depart="64.75" from="gneE52" to="gneE66"/>
    <trip id="260" depart="65.00" from="gneE65-n" to="gneE63"/>
    <trip id="261" depart="65.25" from="gneE54" to="gneE66"/>
    <trip id="262" depart="65.50" from="gneE57" to="gneE63"/>
    <trip id="263" depart="65.75" from="gneE66-n" to="gneE64"/>
    <trip id="264" depart="66.00" from="gneE63-n" to="gneE58"/>
    <trip id="265" depart="66.25" from="gneE65-n" to="gneE64"/>
    <trip id="266" depart="66.50" from="gneE65-n" to="gneE47-n"/>
    <trip id="267" depart="66.75" from="gneE63-n" to="gneE66"/>
    <trip id="268" depart="67.00" from="gneE60" to="gneE64"/>
    <trip id="269" depart="67.25" from="gneE41" to="gneE66"/>
    <trip id="270" depart="67.50" from="gneE64-n" to="gneE49"/>
    <trip id="271" depart="67.75" from="gneE45-n" to="gneE63"/>
    <trip id="272" depart="68.00" from="gneE63-n" to="gneE39"/>
    <trip id="273" depart="68.25" from="gneE65-n" to="gneE63"/>
    <trip id="274" depart="68.50" from="gneE64-n" to="gneE63"/>
    <trip id="275" depart="68.75" from="gneE51" to="gneE65"/>
    <trip id="276" depart="69.00" from="gneE66-n" to="gneE37"/>
    <trip id="278" depart="69.50" from="gneE66-n" to="gneE63"/>
    <trip id="279" depart="69.75" from="gneE66-n" to="gneE65"/>
    <trip id="280" depart="70.00" from="gneE51" to="gneE65"/>
    <trip id="281" depart="70.25" from="gneE58" to="gneE66"/>
    <trip id="282" depart="70.50" from="gneE63-n" to="gneE65"/>
    <trip id="283" depart="70.75" from="gneE63-n" to="gneE66"/>
    <trip id="284" depart="71.00" from="gneE63-n" to="gneE44"/>
    <trip id="285" depart="71.25" from="gneE63-n" to="gneE55"/>
    <trip id="286" depart="71.50" from="gneE47" to="gneE64"/>
    <trip id="287" depart="71.75" from="gneE63-n" to="gneE48-n"/>
    <trip id="288" depart="72.00" from="gneE65-n" to="gneE35"/>
    <trip id="289" depart="72.25" from="gneE65-n" to="gneE64"/>
    <trip id="291" depart="72.75" from="gneE64-n" to="gneE65"/>
    <trip id="292" depart="73.00" from="gneE66-n" to="gneE63"/>
    <trip id="293" depart="73.25" from="gneE34" to="gneE63"/>
    <trip id="294" depart="73.50" from="gneE63-n" to="gneE66"/>
    <trip id="295" depart="73.75" from="gneE66-n" to="gneE60"/>
    <trip id="296" depart="74.00" from="gneE63-n" to="gneE61"/>
    <trip id="297" depart="74.25" from="gneE64-n" to="gneE58"/>
    <trip id="298" depart="74.50" from="gneE64-n" to="gneE44"/>
    <trip id="299" depart="74.75" from="gneE62" to="gneE66"/>
    <trip id="301" depart="75.25" from="gneE64-n" to="gneE65"/>
    <trip id="302" depart="75.50" from="gneE64-n" to="gneE65"/>
    <trip id="303" depart="75.75" from="gneE66-n" to="gneE34"/>
    <trip id="304" depart="76.00" from="gneE37" to="gneE64"/>
    <trip id="305" depart="76.25" from="gneE65-n" to="gneE59"/>
    <trip id="306" depart="76.50" from="gneE39" to="gneE64"/>
    <trip id="307" depart="76.75" from="gneE66-n" to="gneE60"/>
    <trip id="308" depart="77.00" from="gneE64-n" to="gneE66"/>
    <trip id="309" depart="77.25" from="gneE35" to="gneE65"/>
    <trip id="310" depart="77.50" from="gneE45-n" to="gneE63"/>
    <trip id="311" depart="77.75" from="gneE63-n" to="gneE65"/>
    <trip id="312" depart="78.00" from="gneE66-n" to="gneE64"/>
    <trip id="313" depart="78.25" from="gneE49" to="gneE66"/>
    <trip id="314" depart="78.50" from="gneE32" to="gneE65"/>
    <trip id="315" depart="78.75" from="gneE66-n" to="gneE64"/>
    <trip id="317" depart="79.25" from="gneE64-n" to="gneE59"/>
    <trip id="318" depart="79.50" from="gneE49-n" to="gneE65"/>
    <trip id="319" depart="79.75" from="gneE63-n" to="gneE49"/>
    <trip id="321" depart="80.25" from="gneE66-n" to="gneE64"/>
    <trip id="322" depart="80.50" from="gneE47-n" to="gneE63"/>
    <trip id="323" depart="80.75" from="gneE64-n" to="gneE65"/>
    <trip id="324" depart="81.00" from="gneE35" to="gneE64"/>
    <trip id="325" depart="81.25" from="gneE63-n" to="gneE66"/>
    <trip id="326" depart="81.50" from="gneE52" to="gneE65"/>
    <trip id="327" depart="81.75" from="gneE64-n" to="gneE55"/>
    <trip id="328" depart="82.00" from="gneE64-n" to="gneE65"/>
    <trip id="329" depart="82.25" from="gneE64-n" to="gneE66"/>
    <trip id="330" depart="82.50" from="gneE64-n" to="gneE53-n"/>
    <trip id="331" depart="82.75" from="gneE60" to="gneE63"/>
    <trip id="332" depart="83.00" from="gneE64-n" to="gneE38"/>
    <trip id="333" depart="83.25" from="gneE53-n" to="gneE65"/>
    <trip id="334" depart="83.50" from="gneE63-n" to="gneE66"/>
    <trip id="335" depart="83.75" from="gneE63-n" to="gneE66"/>
    <trip id="337" depart="84.25" from="gneE65-n" to="gneE63"/>
    <trip id="338" depart="84.50" from="gneE66-n" to="gneE42"/>
    <trip id="339" depart="84.75" from="gneE66-n" to="gneE65"/>
    <trip id="340" depart="85.00" from="gneE64-n" to="gneE66"/>
    <trip id="341" depart="85.25" from="gneE66-n" to="gneE65"/>
    <trip id="342" depart="85.50" from="gneE55-n" to="gneE65"/>
    <trip id="343" depart="85.75" from="gneE33" to="gneE63"/>
    <trip id="344" depart="86.00" from="gneE61" to="gneE64"/>
    <trip id="345" depart="86.25" from="gneE64-n" to="gneE63"/>
    <trip id="346" depart="86.50" from="gneE65-n" to="gneE66"/>
    <trip id="347" depart="86.75" from="gneE33" to="gneE66"/>
    <trip id="348" depart="87.00" from="gneE63-n" to="gneE66"/>
    <trip id="349" depart="87.25" from="gneE65-n" to="gneE66"/>
    <trip id="350" depart="87.50" from="gneE42" to="gneE66"/>
    <trip id="352" depart="88.00" from="gneE39" to="gneE66"/>
    <trip id="353" depart="88.25" from="gneE64-n" to="gneE65"/>
    <trip id="354" depart="88.50" from="gneE66-n" to="gneE58"/>
    <trip id="355" depart="88.75" from="gneE65-n" to="gneE44"/>
    <trip id="356" depart="89.00" from="gneE63-n" to="gneE58"/>
    <trip id="357" depart="89.25" from="gneE66-n" to="gneE34"/>
    <trip id="358" depart="89.50" from="gneE66-n" to="gneE65"/>
    <trip id="359" depart="89.75" from="gneE39" to="gneE64"/>
    <trip id="360" depart="90.00" from="gneE63-n" to="gneE66"/>
    <trip id="361" depart="90.25" from="gneE65-n" to="gneE61"/>
    <trip id="362" depart="90.50" from="gneE63-n" to="gneE33"/>
    <trip id="363" depart="90.75" from="gneE65-n" to="gneE49"/>
    <trip id="364" depart="91.00" from="gneE41" to="gneE63"/>
    <trip id="365" depart="91.25" from="gneE37" to="gneE65"/>
    <trip id="366" depart="91.50" from="gneE66-n" to="gneE54"/>
    <trip id="367" depart="91.75" from="gneE44" to="gneE66"/>
    <trip id="368" depart="92.00" from="gneE32" to="gneE65"/>
    <trip id="369" depart="92.25" from="gneE64-n" to="gneE33"/>
    <trip id="370" depart="92.50" from="gneE33" to="gneE65"/>
    <trip id="371" depart="92.75" from="gneE65-n" to="gneE63"/>
    <trip id="372" depart="93.00" from="gneE65-n" to="gneE63"/>
    <trip id="373" depart="93.25" from="gneE65-n" to="gneE63"/>
    <trip id="374" depart="93.50" from="gneE40" to="gneE63"/>
    <trip id="375" depart="93.75" from="gneE66-n" to="gneE35"/>
    <trip id="376" depart="94.00" from="gneE63-n" to="gneE61"/>
    <trip id="377" depart="94.25" from="gneE66-n" to="gneE36"/>
    <trip id="378" depart="94.50" from="gneE63-n" to="gneE57"/>
    <trip id="379" depart="94.75" from="gneE64-n" to="gneE63"/>
    <trip id="380" depart="95.00" from="gneE66-n" to="gneE37"/>
    <trip id="381" depart="95.25" from="gneE38" to="gneE64"/>
    <trip id="382" depart="95.50" from="gneE64-n" to="gneE63"/>
    <trip id="383" depart="95.75" from="gneE54" to="gneE66"/>
    <trip id="384" depart="96.00" from="gneE63-n" to="gneE61"/>
    <trip id="385" depart="96.25" from="gneE64-n" to="gneE39"/>
    <trip id="386" depart="96.50" from="gneE64-n" to="gneE65"/>
    <trip id="387" depart="96.75" from="gneE64-n" to="gneE65"/>
    <trip id="388" depart="97.00" from="gneE64-n" to="gneE48"/>
    <trip id="389" depart="97.25" from="gneE59" to="gneE64"/>
    <trip id="390" depart="97.50" from="gneE66-n" to="gneE37"/>
    <trip id="391" depart="97.75" from="gneE65-n" to="gneE39"/>
    <trip id="392" depart="98.00" from="gneE39" to="gneE65"/>
    <trip id="393" depart="98.25" from="gneE65-n" to="gneE63"/>
    <trip id="394" depart="98.50" from="gneE55" to="gneE64"/>
    <trip id="395" depart="98.75" from="gneE64-n" to="gneE66"/>
    <trip id="396" depart="99.00" from="gneE63-n" to="gneE55"/>
    <trip id="397" depart="99.25" from="gneE63-n" to="gneE48"/>
    <trip id="398" depart="99.50" from="gneE64-n" to="gneE48-n"/>
    <trip id="399" depart="99.75" from="gneE53-n" to="gneE65"/>
    <trip id="400" depart="100.00" from="gneE55-n" to="gneE65"/>
    <trip id="401" depart="100.25" from="gneE63-n" to="gneE65"/>
    <trip id="402" depart="100.50" from="gneE65-n" to="gneE66"/>
    <trip id="403" depart="100.75" from="gneE65-n" to="gneE64"/>
    <trip id="404" depart="101.00" from="gneE64-n" to="gneE33"/>
    <trip id="405" depart="101.25" from="gneE66-n" to="gneE65"/>
    <trip id="406" depart="101.50" from="gneE64-n" to="gneE53-n"/>
    <trip id="407" depart="101.75" from="gneE66-n" to="gneE63"/>
    <trip id="408" depart="102.00" from="gneE64-n" to="gneE34"/>
    <trip id="409" depart="102.25" from="gneE65-n" to="gneE48"/>
    <trip id="410" depart="102.50" from="gneE56" to="gneE64"/>
    <trip id="411" depart="102.75" from="gneE65-n" to="gneE63"/>
    <trip id="412" depart="103.00" from="gneE44" to="gneE64"/>
    <trip id="413" depart="103.25" from="gneE64-n" to="gneE51"/>
    <trip id="414" depart="103.50" from="gneE64-n" to="gneE63"/>
    <trip id="415" depart="103.75" from="gneE65-n" to="gneE40"/>
    <trip id="416" depart="104.00" from="gneE64-n" to="gneE63"/>
    <trip id="417" depart="104.25" from="gneE64-n" to="gneE34"/>
    <trip id="418" depart="104.50" from="gneE57" to="gneE63"/>
    <trip id="419" depart="104.75" from="gneE32" to="gneE65"/>
    <trip id="420" depart="105.00" from="gneE64-n" to="gneE63"/>
    <trip id="421" depart="105.25" from="gneE37" to="gneE65"/>
    <trip id="422" depart="105.50" from="gneE66-n" to="gneE65"/>
    <trip id="423" depart="105.75" from="gneE64-n" to="gneE58"/>
    <trip id="425" depart="106.25" from="gneE64-n" to="gneE65"/>
    <trip id="426" depart="106.50" from="gneE66-n" to="gneE37"/>
    <trip id="427" depart="106.75" from="gneE65-n" to="gneE49"/>
    <trip id="428" depart="107.00" from="gneE45-n" to="gneE63"/>
    <trip id="429" depart="107.25" from="gneE40" to="gneE63"/>
    <trip id="430" depart="107.50" from="gneE66-n" to="gneE55"/>
    <trip id="431" depart="107.75" from="gneE64-n" to="gneE65"/>
    <trip id="432" depart="108.00" from="gneE65-n" to="gneE48-n"/>
    <trip id="433" depart="108.25" from="gneE63-n" to="gneE65"/>
    <trip id="434" depart="108.50" from="gneE64-n" to="gneE45-n"/>
    <trip id="435" depart="108.75" from="gneE65-n" to="gneE63"/>
    <trip id="436" depart="109.00" from="gneE61" to="gneE66"/>
    <trip id="437" depart="109.25" from="gneE63-n" to="gneE64"/>
    <trip id="438" depart="109.50" from="gneE64-n" to="gneE65"/>
    <trip id="439" depart="109.75" from="gneE64-n" to="gneE44"/>
    <trip id="440" depart="110.00" from="gneE36" to="gneE63"/>
    <trip id="441" depart="110.25" from="gneE36" to="gneE65"/>
    <trip id="442" depart="110.50" from="gneE37" to="gneE65"/>
    <trip id="443" depart="110.75" from="gneE65-n" to="gneE64"/>
    <trip id="444" depart="111.00" from="gneE63-n" to="gneE62"/>
    <trip id="445" depart="111.25" from="gneE63-n" to="gneE65"/>
    <trip id="446" depart="111.50" from="gneE66-n" to="gneE61"/>
    <trip id="447" depart="111.75" from="gneE65-n" to="gneE64"/>
    <trip id="448" depart="112.00" from="gneE54" to="gneE63"/>
    <trip id="449" depart="112.25" from="gneE39" to="gneE66"/>
    <trip id="450" depart="112.50" from="gneE55" to="gneE64"/>
    <trip id="451" depart="112.75" from="gneE63-n" to="gneE44"/>
    <trip id="452" depart="113.00" from="gneE60" to="gneE63"/>
    <trip id="454" depart="113.50" from="gneE65-n" to="gneE64"/>
    <trip id="455" depart="113.75" from="gneE64-n" to="gneE52"/>
    <trip id="457" depart="114.25" from="gneE66-n" to="gneE64"/>
    <trip id="458" depart="114.50" from="gneE56-n" to="gneE63"/>
    <trip id="459" depart="114.75" from="gneE66-n" to="gneE53-n"/>
    <trip id="461" depart="115.25" from="gneE65-n" to="gneE64"/>
    <trip id="462" depart="115.50" from="gneE64-n" to="gneE63"/>
    <trip id="463" depart="115.75" from="gneE64-n" to="gneE59"/>
    <trip id="464" depart="116.00" from="gneE66-n" to="gneE63"/>
    <trip id="465" depart="116.25" from="gneE37" to="gneE65"/>
    <trip id="466" depart="116.50" from="gneE39" to="gneE65"/>
    <trip id="467" depart="116.75" from="gneE65-n" to="gneE66"/>
    <trip id="468" depart="117.00" from="gneE65-n" to="gneE40"/>
    <trip id="470" depart="117.50" from="gneE64-n" to="gneE49"/>
    <trip id="471" depart="117.75" from="gneE65-n" to="gneE61"/>
    <trip id="472" depart="118.00" from="gneE63-n" to="gneE53-n"/>
    <trip id="473" depart="118.25" from="gneE65-n" to="gneE62"/>
    <trip id="474" depart="118.50" from="gneE65-n" to="gneE55-n"/>
    <trip id="475" depart="118.75" from="gneE56-n" to="gneE63"/>
    <trip id="476" depart="119.00" from="gneE66-n" to="gneE65"/>
    <trip id="477" depart="119.25" from="gneE65-n" to="gneE42"/>
    <trip id="478" depart="119.50" from="gneE49-n" to="gneE64"/>
    <trip id="479" depart="119.75" from="gneE66-n" to="gneE63"/>
    <trip id="480" depart="120.00" from="gneE39" to="gneE65"/>
    <trip id="481" depart="120.25" from="gneE65-n" to="gneE52"/>
    <trip id="482" depart="120.50" from="gneE65-n" to="gneE51"/>
    <trip id="483" depart="120.75" from="gneE66-n" to="gneE44"/>
    <trip id="484" depart="121.00" from="gneE48" to="gneE66"/>
    <trip id="485" depart="121.25" from="gneE36" to="gneE63"/>
    <trip id="487" depart="121.75" from="gneE66-n" to="gneE65"/>
    <trip id="488" depart="122.00" from="gneE64-n" to="gneE65"/>
    <trip id="489" depart="122.25" from="gneE65-n" to="gneE64"/>
    <trip id="490" depart="122.50" from="gneE42" to="gneE64"/>
    <trip id="491" depart="122.75" from="gneE65-n" to="gneE63"/>
    <trip id="492" depart="123.00" from="gneE64-n" to="gneE63"/>
    <trip id="493" depart="123.25" from="gneE58" to="gneE65"/>
    <trip id="494" depart="123.50" from="gneE66-n" to="gneE63"/>
    <trip id="495" depart="123.75" from="gneE33" to="gneE63"/>
    <trip id="496" depart="124.00" from="gneE59" to="gneE64"/>
    <trip id="497" depart="124.25" from="gneE64-n" to="gneE38"/>
    <trip id="498" depart="124.50" from="gneE66-n" to="gneE37"/>
    <trip id="499" depart="124.75" from="gneE66-n" to="gneE63"/>
    <trip id="500" depart="125.00" from="gneE64-n" to="gneE66"/>