<?xml version="1.0" encoding="UTF-8"?>

<!-- generated on Mon May 31 09:51:27 2021 by Eclipse SUMO duarouter Version 1.7.0
<configuration xmlns:xsi="http://www.w3.org/2001/XMLSchema-instance" xsi:noNamespaceSchemaLocation="http://sumo.dlr.de/xsd/duarouterConfiguration.xsd">

    <input>
        <net-file value="0/../../DiamondTLs.net.xml"/>
        <route-files value="0/../../DiamondFlowsAcrossNet.rou.xml"/>
    </input>

    <output>
        <output-file value="0/DiamondFlowsAcrossNet_000.rou.xml"/>
        <alternatives-output value="0/DiamondFlowsAcrossNet_000.rou.alt.xml"/>
        <exit-times value="false"/>
    </output>

    <processing>
        <max-alternatives value="5"/>
        <with-taz value="false"/>
        <weights.expand value="true"/>
        <routing-algorithm value="dijkstra"/>
        <gawron.beta value="0.9"/>
        <gawron.a value="0.5"/>
        <keep-all-routes value="false"/>
        <logit value="false"/>
        <logit.beta value="0.15"/>
        <logit.gamma value="1"/>
    </processing>

    <time>
        <begin value="0"/>
    </time>

    <report>
        <verbose value="false"/>
        <no-warnings value="false"/>
        <ignore-errors value="false"/>
        <no-step-log value="true"/>
    </report>

    <random_number>
        <random value="false"/>
    </random_number>

</configuration>
-->

<routes xmlns:xsi="http://www.w3.org/2001/XMLSchema-instance" xsi:noNamespaceSchemaLocation="http://sumo.dlr.de/xsd/routes_file.xsd">
    <vehicle id="A5E1.0" depart="0.00" color="red">
        <route edges="gneE63-n gneE44 gneE42 gneE41 gneE65"/>
    </vehicle>
    <vehicle id="A5E9.0" depart="0.00" color="yellow">
        <route edges="gneE63-n gneE45 gneE47 gneE55 gneE56 gneE64"/>
    </vehicle>
    <vehicle id="A5J5.0" depart="0.00" color="green">
        <route edges="gneE63-n gneE45 gneE47 gneE48 gneE49 gneE66"/>
    </vehicle>
    <vehicle id="E1A5.0" depart="0.00" color="grey">
        <route edges="gneE65-n gneE53 gneE54 gneE47-n gneE45-n gneE63"/>
    </vehicle>
    <vehicle id="E1E9.0" depart="0.00" color="yellow">
        <route edges="gneE65-n gneE53 gneE54 gneE55 gneE56 gneE64"/>
    </vehicle>
    <vehicle id="E1J5.0" depart="0.00" color="green">
        <route edges="gneE65-n gneE40 gneE39 gneE38 gneE66"/>
    </vehicle>
    <vehicle id="E9A5.0" depart="0.00" color="grey">
        <route edges="gneE64-n gneE34 gneE33 gneE32 gneE63"/>
    </vehicle>
    <vehicle id="E9E1.0" depart="0.00" color="red">
        <route edges="gneE64-n gneE56-n gneE55-n gneE54-n gneE53-n gneE65"/>
    </vehicle>
    <vehicle id="E9J5.0" depart="0.00" color="green">
        <route edges="gneE64-n gneE56-n gneE55-n gneE48 gneE49 gneE66"/>
    </vehicle>
    <vehicle id="J5A5.0" depart="0.00" color="grey">
        <route edges="gneE66-n gneE49-n gneE48-n gneE47-n gneE45-n gneE63"/>
    </vehicle>
    <vehicle id="J5E1.0" depart="0.00" color="red">
        <route edges="gneE66-n gneE49-n gneE48-n gneE54-n gneE53-n gneE65"/>
    </vehicle>
    <vehicle id="J5E9.0" depart="0.00" color="yellow">
        <route edges="gneE66-n gneE37 gneE36 gneE35 gneE64"/>
    </vehicle>
    <vehicle id="A5E1.1" depart="2.50" color="red">
        <route edges="gneE63-n gneE44 gneE42 gneE41 gneE65"/>
    </vehicle>
    <vehicle id="A5E9.1" depart="2.50" color="yellow">
        <route edges="gneE63-n gneE45 gneE47 gneE55 gneE56 gneE64"/>
    </vehicle>
    <vehicle id="A5J5.1" depart="2.50" color="green">
        <route edges="gneE63-n gneE45 gneE47 gneE48 gneE49 gneE66"/>
    </vehicle>
    <vehicle id="E1A5.1" depart="2.50" color="grey">
        <route edges="gneE65-n gneE53 gneE54 gneE47-n gneE45-n gneE63"/>
    </vehicle>
    <vehicle id="E1E9.1" depart="2.50" color="yellow">
        <route edges="gneE65-n gneE53 gneE54 gneE55 gneE56 gneE64"/>
    </vehicle>
    <vehicle id="E1J5.1" depart="2.50" color="green">
        <route edges="gneE65-n gneE40 gneE39 gneE38 gneE66"/>
    </vehicle>
    <vehicle id="E9A5.1" depart="2.50" color="grey">
        <route edges="gneE64-n gneE34 gneE33 gneE32 gneE63"/>
    </vehicle>
    <vehicle id="E9E1.1" depart="2.50" color="red">
        <route edges="gneE64-n gneE56-n gneE55-n gneE54-n gneE53-n gneE65"/>
    </vehicle>
    <vehicle id="E9J5.1" depart="2.50" color="green">
        <route edges="gneE64-n gneE56-n gneE55-n gneE48 gneE49 gneE66"/>
    </vehicle>
    <vehicle id="J5A5.1" depart="2.50" color="grey">
        <route edges="gneE66-n gneE49-n gneE48-n gneE47-n gneE45-n gneE63"/>
    </vehicle>
    <vehicle id="J5E1.1" depart="2.50" color="red">
        <route edges="gneE66-n gneE49-n gneE48-n gneE54-n gneE53-n gneE65"/>
    </vehicle>
    <vehicle id="J5E9.1" depart="2.50" color="yellow">
        <route edges="gneE66-n gneE37 gneE36 gneE35 gneE64"/>
    </vehicle>
    <vehicle id="A5E1.2" depart="5.00" color="red">
        <route edges="gneE63-n gneE44 gneE42 gneE41 gneE65"/>
    </vehicle>
    <vehicle id="A5E9.2" depart="5.00" color="yellow">
        <route edges="gneE63-n gneE45 gneE47 gneE55 gneE56 gneE64"/>
    </vehicle>
    <vehicle id="A5J5.2" depart="5.00" color="green">
        <route edges="gneE63-n gneE45 gneE47 gneE48 gneE49 gneE66"/>
    </vehicle>
    <vehicle id="E1A5.2" depart="5.00" color="grey">
        <route edges="gneE65-n gneE53 gneE54 gneE47-n gneE45-n gneE63"/>
    </vehicle>
    <vehicle id="E1E9.2" depart="5.00" color="yellow">
        <route edges="gneE65-n gneE53 gneE54 gneE55 gneE56 gneE64"/>
    </vehicle>
    <vehicle id="E1J5.2" depart="5.00" color="green">
        <route edges="gneE65-n gneE40 gneE39 gneE38 gneE66"/>
    </vehicle>
    <vehicle id="E9A5.2" depart="5.00" color="grey">
        <route edges="gneE64-n gneE34 gneE33 gneE32 gneE63"/>
    </vehicle>
    <vehicle id="E9E1.2" depart="5.00" color="red">
        <route edges="gneE64-n gneE56-n gneE55-n gneE54-n gneE53-n gneE65"/>
    </vehicle>
    <vehicle id="E9J5.2" depart="5.00" color="green">
        <route edges="gneE64-n gneE56-n gneE55-n gneE48 gneE49 gneE66"/>
    </vehicle>
    <vehicle id="J5A5.2" depart="5.00" color="grey">
        <route edges="gneE66-n gneE49-n gneE48-n gneE47-n gneE45-n gneE63"/>
    </vehicle>
    <vehicle id="J5E1.2" depart="5.00" color="red">
        <route edges="gneE66-n gneE49-n gneE48-n gneE54-n gneE53-n gneE65"/>
    </vehicle>
    <vehicle id="J5E9.2" depart="5.00" color="yellow">
        <route edges="gneE66-n gneE37 gneE36 gneE35 gneE64"/>
    </vehicle>
    <vehicle id="A5E1.3" depart="7.50" color="red">
        <route edges="gneE63-n gneE44 gneE42 gneE41 gneE65"/>
    </vehicle>
    <vehicle id="A5E9.3" depart="7.50" color="yellow">
        <route edges="gneE63-n gneE45 gneE47 gneE55 gneE56 gneE64"/>
    </vehicle>
    <vehicle id="A5J5.3" depart="7.50" color="green">
        <route edges="gneE63-n gneE45 gneE47 gneE48 gneE49 gneE66"/>
    </vehicle>
    <vehicle id="E1A5.3" depart="7.50" color="grey">
        <route edges="gneE65-n gneE53 gneE54 gneE47-n gneE45-n gneE63"/>
    </vehicle>
    <vehicle id="E1E9.3" depart="7.50" color="yellow">
        <route edges="gneE65-n gneE53 gneE54 gneE55 gneE56 gneE64"/>
    </vehicle>
    <vehicle id="E1J5.3" depart="7.50" color="green">
        <route edges="gneE65-n gneE40 gneE39 gneE38 gneE66"/>
    </vehicle>
    <vehicle id="E9A5.3" depart="7.50" color="grey">
        <route edges="gneE64-n gneE34 gneE33 gneE32 gneE63"/>
    </vehicle>
    <vehicle id="E9E1.3" depart="7.50" color="red">
        <route edges="gneE64-n gneE56-n gneE55-n gneE54-n gneE53-n gneE65"/>
    </vehicle>
    <vehicle id="E9J5.3" depart="7.50" color="green">
        <route edges="gneE64-n gneE56-n gneE55-n gneE48 gneE49 gneE66"/>
    </vehicle>
    <vehicle id="J5A5.3" depart="7.50" color="grey">
        <route edges="gneE66-n gneE49-n gneE48-n gneE47-n gneE45-n gneE63"/>
    </vehicle>
    <vehicle id="J5E1.3" depart="7.50" color="red">
        <route edges="gneE66-n gneE49-n gneE48-n gneE54-n gneE53-n gneE65"/>
    </vehicle>
    <vehicle id="J5E9.3" depart="7.50" color="yellow">
        <route edges="gneE66-n gneE37 gneE36 gneE35 gneE64"/>
    </vehicle>
    <vehicle id="A5E1.4" depart="10.00" color="red">
        <route edges="gneE63-n gneE44 gneE42 gneE41 gneE65"/>
    </vehicle>
    <vehicle id="A5E9.4" depart="10.00" color="yellow">
        <route edges="gneE63-n gneE45 gneE47 gneE55 gneE56 gneE64"/>
    </vehicle>
    <vehicle id="A5J5.4" depart="10.00" color="green">
        <route edges="gneE63-n gneE45 gneE47 gneE48 gneE49 gneE66"/>
    </vehicle>
    <vehicle id="E1A5.4" depart="10.00" color="grey">
        <route edges="gneE65-n gneE53 gneE54 gneE47-n gneE45-n gneE63"/>
    </vehicle>
    <vehicle id="E1E9.4" depart="10.00" color="yellow">
        <route edges="gneE65-n gneE53 gneE54 gneE55 gneE56 gneE64"/>
    </vehicle>
    <vehicle id="E1J5.4" depart="10.00" color="green">
        <route edges="gneE65-n gneE40 gneE39 gneE38 gneE66"/>
    </vehicle>
    <vehicle id="E9A5.4" depart="10.00" color="grey">
        <route edges="gneE64-n gneE34 gneE33 gneE32 gneE63"/>
    </vehicle>
    <vehicle id="E9E1.4" depart="10.00" color="red">
        <route edges="gneE64-n gneE56-n gneE55-n gneE54-n gneE53-n gneE65"/>
    </vehicle>
    <vehicle id="E9J5.4" depart="10.00" color="green">
        <route edges="gneE64-n gneE56-n gneE55-n gneE48 gneE49 gneE66"/>
    </vehicle>
    <vehicle id="J5A5.4" depart="10.00" color="grey">
        <route edges="gneE66-n gneE49-n gneE48-n gneE47-n gneE45-n gneE63"/>
    </vehicle>
    <vehicle id="J5E1.4" depart="10.00" color="red">
        <route edges="gneE66-n gneE49-n gneE48-n gneE54-n gneE53-n gneE65"/>
    </vehicle>
    <vehicle id="J5E9.4" depart="10.00" color="yellow">
        <route edges="gneE66-n gneE37 gneE36 gneE35 gneE64"/>
    </vehicle>
    <vehicle id="A5E1.5" depart="12.50" color="red">
        <route edges="gneE63-n gneE44 gneE42 gneE41 gneE65"/>
    </vehicle>
    <vehicle id="A5E9.5" depart="12.50" color="yellow">
        <route edges="gneE63-n gneE45 gneE47 gneE55 gneE56 gneE64"/>
    </vehicle>
    <vehicle id="A5J5.5" depart="12.50" color="green">
        <route edges="gneE63-n gneE45 gneE47 gneE48 gneE49 gneE66"/>
    </vehicle>
    <vehicle id="E1A5.5" depart="12.50" color="grey">
        <route edges="gneE65-n gneE53 gneE54 gneE47-n gneE45-n gneE63"/>
    </vehicle>
    <vehicle id="E1E9.5" depart="12.50" color="yellow">
        <route edges="gneE65-n gneE53 gneE54 gneE55 gneE56 gneE64"/>
    </vehicle>
    <vehicle id="E1J5.5" depart="12.50" color="green">
        <route edges="gneE65-n gneE40 gneE39 gneE38 gneE66"/>
    </vehicle>
    <vehicle id="E9A5.5" depart="12.50" color="grey">
        <route edges="gneE64-n gneE34 gneE33 gneE32 gneE63"/>
    </vehicle>
    <vehicle id="E9E1.5" depart="12.50" color="red">
        <route edges="gneE64-n gneE56-n gneE55-n gneE54-n gneE53-n gneE65"/>
    </vehicle>
    <vehicle id="E9J5.5" depart="12.50" color="green">
        <route edges="gneE64-n gneE56-n gneE55-n gneE48 gneE49 gneE66"/>
    </vehicle>
    <vehicle id="J5A5.5" depart="12.50" color="grey">
        <route edges="gneE66-n gneE49-n gneE48-n gneE47-n gneE45-n gneE63"/>
    </vehicle>
    <vehicle id="J5E1.5" depart="12.50" color="red">
        <route edges="gneE66-n gneE49-n gneE48-n gneE54-n gneE53-n gneE65"/>
    </vehicle>
    <vehicle id="J5E9.5" depart="12.50" color="yellow">
        <route edges="gneE66-n gneE37 gneE36 gneE35 gneE64"/>
    </vehicle>
    <vehicle id="A5E1.6" depart="15.00" color="red">
        <route edges="gneE63-n gneE44 gneE42 gneE41 gneE65"/>
    </vehicle>
    <vehicle id="A5E9.6" depart="15.00" color="yellow">
        <route edges="gneE63-n gneE45 gneE47 gneE55 gneE56 gneE64"/>
    </vehicle>
    <vehicle id="A5J5.6" depart="15.00" color="green">
        <route edges="gneE63-n gneE45 gneE47 gneE48 gneE49 gneE66"/>
    </vehicle>
    <vehicle id="E1A5.6" depart="15.00" color="grey">
        <route edges="gneE65-n gneE53 gneE54 gneE47-n gneE45-n gneE63"/>
    </vehicle>
    <vehicle id="E1E9.6" depart="15.00" color="yellow">
        <route edges="gneE65-n gneE53 gneE54 gneE55 gneE56 gneE64"/>
    </vehicle>
    <vehicle id="E1J5.6" depart="15.00" color="green">
        <route edges="gneE65-n gneE40 gneE39 gneE38 gneE66"/>
    </vehicle>
    <vehicle id="E9A5.6" depart="15.00" color="grey">
        <route edges="gneE64-n gneE34 gneE33 gneE32 gneE63"/>
    </vehicle>
    <vehicle id="E9E1.6" depart="15.00" color="red">
        <route edges="gneE64-n gneE56-n gneE55-n gneE54-n gneE53-n gneE65"/>
    </vehicle>
    <vehicle id="E9J5.6" depart="15.00" color="green">
        <route edges="gneE64-n gneE56-n gneE55-n gneE48 gneE49 gneE66"/>
    </vehicle>
    <vehicle id="J5A5.6" depart="15.00" color="grey">
        <route edges="gneE66-n gneE49-n gneE48-n gneE47-n gneE45-n gneE63"/>
    </vehicle>
    <vehicle id="J5E1.6" depart="15.00" color="red">
        <route edges="gneE66-n gneE49-n gneE48-n gneE54-n gneE53-n gneE65"/>
    </vehicle>
    <vehicle id="J5E9.6" depart="15.00" color="yellow">
        <route edges="gneE66-n gneE37 gneE36 gneE35 gneE64"/>
    </vehicle>
    <vehicle id="A5E1.7" depart="17.50" color="red">
        <route edges="gneE63-n gneE44 gneE42 gneE41 gneE65"/>
    </vehicle>
    <vehicle id="A5E9.7" depart="17.50" color="yellow">
        <route edges="gneE63-n gneE45 gneE47 gneE55 gneE56 gneE64"/>
    </vehicle>
    <vehicle id="A5J5.7" depart="17.50" color="green">
        <route edges="gneE63-n gneE45 gneE47 gneE48 gneE49 gneE66"/>
    </vehicle>
    <vehicle id="E1A5.7" depart="17.50" color="grey">
        <route edges="gneE65-n gneE53 gneE54 gneE47-n gneE45-n gneE63"/>
    </vehicle>
    <vehicle id="E1E9.7" depart="17.50" color="yellow">
        <route edges="gneE65-n gneE53 gneE54 gneE55 gneE56 gneE64"/>
    </vehicle>
    <vehicle id="E1J5.7" depart="17.50" color="green">
        <route edges="gneE65-n gneE40 gneE39 gneE38 gneE66"/>
    </vehicle>
    <vehicle id="E9A5.7" depart="17.50" color="grey">
        <route edges="gneE64-n gneE34 gneE33 gneE32 gneE63"/>
    </vehicle>
    <vehicle id="E9E1.7" depart="17.50" color="red">
        <route edges="gneE64-n gneE56-n gneE55-n gneE54-n gneE53-n gneE65"/>
    </vehicle>
    <vehicle id="E9J5.7" depart="17.50" color="green">
        <route edges="gneE64-n gneE56-n gneE55-n gneE48 gneE49 gneE66"/>
    </vehicle>
    <vehicle id="J5A5.7" depart="17.50" color="grey">
        <route edges="gneE66-n gneE49-n gneE48-n gneE47-n gneE45-n gneE63"/>
    </vehicle>
    <vehicle id="J5E1.7" depart="17.50" color="red">
        <route edges="gneE66-n gneE49-n gneE48-n gneE54-n gneE53-n gneE65"/>
    </vehicle>
    <vehicle id="J5E9.7" depart="17.50" color="yellow">
        <route edges="gneE66-n gneE37 gneE36 gneE35 gneE64"/>
    </vehicle>
    <vehicle id="A5E1.8" depart="20.00" color="red">
        <route edges="gneE63-n gneE44 gneE42 gneE41 gneE65"/>
    </vehicle>
    <vehicle id="A5E9.8" depart="20.00" color="yellow">
        <route edges="gneE63-n gneE45 gneE47 gneE55 gneE56 gneE64"/>
    </vehicle>
    <vehicle id="A5J5.8" depart="20.00" color="green">
        <route edges="gneE63-n gneE45 gneE47 gneE48 gneE49 gneE66"/>
    </vehicle>
    <vehicle id="E1A5.8" depart="20.00" color="grey">
        <route edges="gneE65-n gneE53 gneE54 gneE47-n gneE45-n gneE63"/>
    </vehicle>
    <vehicle id="E1E9.8" depart="20.00" color="yellow">
        <route edges="gneE65-n gneE53 gneE54 gneE55 gneE56 gneE64"/>
    </vehicle>
    <vehicle id="E1J5.8" depart="20.00" color="green">
        <route edges="gneE65-n gneE40 gneE39 gneE38 gneE66"/>
    </vehicle>
    <vehicle id="E9A5.8" depart="20.00" color="grey">
        <route edges="gneE64-n gneE34 gneE33 gneE32 gneE63"/>
    </vehicle>
    <vehicle id="E9E1.8" depart="20.00" color="red">
        <route edges="gneE64-n gneE56-n gneE55-n gneE54-n gneE53-n gneE65"/>
    </vehicle>
    <vehicle id="E9J5.8" depart="20.00" color="green">
        <route edges="gneE64-n gneE56-n gneE55-n gneE48 gneE49 gneE66"/>
    </vehicle>
    <vehicle id="J5A5.8" depart="20.00" color="grey">
        <route edges="gneE66-n gneE49-n gneE48-n gneE47-n gneE45-n gneE63"/>
    </vehicle>
    <vehicle id="J5E1.8" depart="20.00" color="red">
        <route edges="gneE66-n gneE49-n gneE48-n gneE54-n gneE53-n gneE65"/>
    </vehicle>
    <vehicle id="J5E9.8" depart="20.00" color="yellow">
        <route edges="gneE66-n gneE37 gneE36 gneE35 gneE64"/>
    </vehicle>
    <vehicle id="A5E1.9" depart="22.50" color="red">
        <route edges="gneE63-n gneE44 gneE42 gneE41 gneE65"/>
    </vehicle>
    <vehicle id="A5E9.9" depart="22.50" color="yellow">
        <route edges="gneE63-n gneE45 gneE47 gneE55 gneE56 gneE64"/>
    </vehicle>
    <vehicle id="A5J5.9" depart="22.50" color="green">
        <route edges="gneE63-n gneE45 gneE47 gneE48 gneE49 gneE66"/>
    </vehicle>
    <vehicle id="E1A5.9" depart="22.50" color="grey">
        <route edges="gneE65-n gneE53 gneE54 gneE47-n gneE45-n gneE63"/>
    </vehicle>
    <vehicle id="E1E9.9" depart="22.50" color="yellow">
        <route edges="gneE65-n gneE53 gneE54 gneE55 gneE56 gneE64"/>
    </vehicle>
    <vehicle id="E1J5.9" depart="22.50" color="green">
        <route edges="gneE65-n gneE40 gneE39 gneE38 gneE66"/>
    </vehicle>
    <vehicle id="E9A5.9" depart="22.50" color="grey">
        <route edges="gneE64-n gneE34 gneE33 gneE32 gneE63"/>
    </vehicle>
    <vehicle id="E9E1.9" depart="22.50" color="red">
        <route edges="gneE64-n gneE56-n gneE55-n gneE54-n gneE53-n gneE65"/>
    </vehicle>
    <vehicle id="E9J5.9" depart="22.50" color="green">
        <route edges="gneE64-n gneE56-n gneE55-n gneE48 gneE49 gneE66"/>
    </vehicle>
    <vehicle id="J5A5.9" depart="22.50" color="grey">
        <route edges="gneE66-n gneE49-n gneE48-n gneE47-n gneE45-n gneE63"/>
    </vehicle>
    <vehicle id="J5E1.9" depart="22.50" color="red">
        <route edges="gneE66-n gneE49-n gneE48-n gneE54-n gneE53-n gneE65"/>
    </vehicle>
    <vehicle id="J5E9.9" depart="22.50" color="yellow">
        <route edges="gneE66-n gneE37 gneE36 gneE35 gneE64"/>
    </vehicle>
    <vehicle id="A5E1.10" depart="25.00" color="red">
        <route edges="gneE63-n gneE44 gneE42 gneE41 gneE65"/>
    </vehicle>
    <vehicle id="A5E9.10" depart="25.00" color="yellow">
        <route edges="gneE63-n gneE45 gneE47 gneE55 gneE56 gneE64"/>
    </vehicle>
    <vehicle id="A5J5.10" depart="25.00" color="green">
        <route edges="gneE63-n gneE45 gneE47 gneE48 gneE49 gneE66"/>
    </vehicle>
    <vehicle id="E1A5.10" depart="25.00" color="grey">
        <route edges="gneE65-n gneE53 gneE54 gneE47-n gneE45-n gneE63"/>
    </vehicle>
    <vehicle id="E1E9.10" depart="25.00" color="yellow">
        <route edges="gneE65-n gneE53 gneE54 gneE55 gneE56 gneE64"/>
    </vehicle>
    <vehicle id="E1J5.10" depart="25.00" color="green">
        <route edges="gneE65-n gneE40 gneE39 gneE38 gneE66"/>
    </vehicle>
    <vehicle id="E9A5.10" depart="25.00" color="grey">
        <route edges="gneE64-n gneE34 gneE33 gneE32 gneE63"/>
    </vehicle>
    <vehicle id="E9E1.10" depart="25.00" color="red">
        <route edges="gneE64-n gneE56-n gneE55-n gneE54-n gneE53-n gneE65"/>
    </vehicle>
    <vehicle id="E9J5.10" depart="25.00" color="green">
        <route edges="gneE64-n gneE56-n gneE55-n gneE48 gneE49 gneE66"/>
    </vehicle>
    <vehicle id="J5A5.10" depart="25.00" color="grey">
        <route edges="gneE66-n gneE49-n gneE48-n gneE47-n gneE45-n gneE63"/>
    </vehicle>
    <vehicle id="J5E1.10" depart="25.00" color="red">
        <route edges="gneE66-n gneE49-n gneE48-n gneE54-n gneE53-n gneE65"/>
    </vehicle>
    <vehicle id="J5E9.10" depart="25.00" color="yellow">
        <route edges="gneE66-n gneE37 gneE36 gneE35 gneE64"/>
    </vehicle>
    <vehicle id="A5E1.11" depart="27.50" color="red">
        <route edges="gneE63-n gneE44 gneE42 gneE41 gneE65"/>
    </vehicle>
    <vehicle id="A5E9.11" depart="27.50" color="yellow">
        <route edges="gneE63-n gneE45 gneE47 gneE55 gneE56 gneE64"/>
    </vehicle>
    <vehicle id="A5J5.11" depart="27.50" color="green">
        <route edges="gneE63-n gneE45 gneE47 gneE48 gneE49 gneE66"/>
    </vehicle>
    <vehicle id="E1A5.11" depart="27.50" color="grey">
        <route edges="gneE65-n gneE53 gneE54 gneE47-n gneE45-n gneE63"/>
    </vehicle>
    <vehicle id="E1E9.11" depart="27.50" color="yellow">
        <route edges="gneE65-n gneE53 gneE54 gneE55 gneE56 gneE64"/>
    </vehicle>
    <vehicle id="E1J5.11" depart="27.50" color="green">
        <route edges="gneE65-n gneE40 gneE39 gneE38 gneE66"/>
    </vehicle>
    <vehicle id="E9A5.11" depart="27.50" color="grey">
        <route edges="gneE64-n gneE34 gneE33 gneE32 gneE63"/>
    </vehicle>
    <vehicle id="E9E1.11" depart="27.50" color="red">
        <route edges="gneE64-n gneE56-n gneE55-n gneE54-n gneE53-n gneE65"/>
    </vehicle>
    <vehicle id="E9J5.11" depart="27.50" color="green">
        <route edges="gneE64-n gneE56-n gneE55-n gneE48 gneE49 gneE66"/>
    </vehicle>
    <vehicle id="J5A5.11" depart="27.50" color="grey">
        <route edges="gneE66-n gneE49-n gneE48-n gneE47-n gneE45-n gneE63"/>
    </vehicle>
    <vehicle id="J5E1.11" depart="27.50" color="red">
        <route edges="gneE66-n gneE49-n gneE48-n gneE54-n gneE53-n gneE65"/>
    </vehicle>
    <vehicle id="J5E9.11" depart="27.50" color="yellow">
        <route edges="gneE66-n gneE37 gneE36 gneE35 gneE64"/>
    </vehicle>
    <vehicle id="A5E1.12" depart="30.00" color="red">
        <route edges="gneE63-n gneE44 gneE42 gneE41 gneE65"/>
    </vehicle>
    <vehicle id="A5E9.12" depart="30.00" color="yellow">
        <route edges="gneE63-n gneE45 gneE47 gneE55 gneE56 gneE64"/>
    </vehicle>
    <vehicle id="A5J5.12" depart="30.00" color="green">
        <route edges="gneE63-n gneE45 gneE47 gneE48 gneE49 gneE66"/>
    </vehicle>
    <vehicle id="E1A5.12" depart="30.00" color="grey">
        <route edges="gneE65-n gneE53 gneE54 gneE47-n gneE45-n gneE63"/>
    </vehicle>
    <vehicle id="E1E9.12" depart="30.00" color="yellow">
        <route edges="gneE65-n gneE53 gneE54 gneE55 gneE56 gneE64"/>
    </vehicle>
    <vehicle id="E1J5.12" depart="30.00" color="green">
        <route edges="gneE65-n gneE40 gneE39 gneE38 gneE66"/>
    </vehicle>
    <vehicle id="E9A5.12" depart="30.00" color="grey">
        <route edges="gneE64-n gneE34 gneE33 gneE32 gneE63"/>
    </vehicle>
    <vehicle id="E9E1.12" depart="30.00" color="red">
        <route edges="gneE64-n gneE56-n gneE55-n gneE54-n gneE53-n gneE65"/>
    </vehicle>
    <vehicle id="E9J5.12" depart="30.00" color="green">
        <route edges="gneE64-n gneE56-n gneE55-n gneE48 gneE49 gneE66"/>
    </vehicle>
    <vehicle id="J5A5.12" depart="30.00" color="grey">
        <route edges="gneE66-n gneE49-n gneE48-n gneE47-n gneE45-n gneE63"/>
    </vehicle>
    <vehicle id="J5E1.12" depart="30.00" color="red">
        <route edges="gneE66-n gneE49-n gneE48-n gneE54-n gneE53-n gneE65"/>
    </vehicle>
    <vehicle id="J5E9.12" depart="30.00" color="yellow">
        <route edges="gneE66-n gneE37 gneE36 gneE35 gneE64"/>
    </vehicle>
    <vehicle id="A5E1.13" depart="32.50" color="red">
        <route edges="gneE63-n gneE44 gneE42 gneE41 gneE65"/>
    </vehicle>
    <vehicle id="A5E9.13" depart="32.50" color="yellow">
        <route edges="gneE63-n gneE45 gneE47 gneE55 gneE56 gneE64"/>
    </vehicle>
    <vehicle id="A5J5.13" depart="32.50" color="green">
        <route edges="gneE63-n gneE45 gneE47 gneE48 gneE49 gneE66"/>
    </vehicle>
    <vehicle id="E1A5.13" depart="32.50" color="grey">
        <route edges="gneE65-n gneE53 gneE54 gneE47-n gneE45-n gneE63"/>
    </vehicle>
    <vehicle id="E1E9.13" depart="32.50" color="yellow">
        <route edges="gneE65-n gneE53 gneE54 gneE55 gneE56 gneE64"/>
    </vehicle>
    <vehicle id="E1J5.13" depart="32.50" color="green">
        <route edges="gneE65-n gneE40 gneE39 gneE38 gneE66"/>
    </vehicle>
    <vehicle id="E9A5.13" depart="32.50" color="grey">
        <route edges="gneE64-n gneE34 gneE33 gneE32 gneE63"/>
    </vehicle>
    <vehicle id="E9E1.13" depart="32.50" color="red">
        <route edges="gneE64-n gneE56-n gneE55-n gneE54-n gneE53-n gneE65"/>
    </vehicle>
    <vehicle id="E9J5.13" depart="32.50" color="green">
        <route edges="gneE64-n gneE56-n gneE55-n gneE48 gneE49 gneE66"/>
    </vehicle>
    <vehicle id="J5A5.13" depart="32.50" color="grey">
        <route edges="gneE66-n gneE49-n gneE48-n gneE47-n gneE45-n gneE63"/>
    </vehicle>
    <vehicle id="J5E1.13" depart="32.50" color="red">
        <route edges="gneE66-n gneE49-n gneE48-n gneE54-n gneE53-n gneE65"/>
    </vehicle>
    <vehicle id="J5E9.13" depart="32.50" color="yellow">
        <route edges="gneE66-n gneE37 gneE36 gneE35 gneE64"/>
    </vehicle>
    <vehicle id="A5E1.14" depart="35.00" color="red">
        <route edges="gneE63-n gneE44 gneE42 gneE41 gneE65"/>
    </vehicle>
    <vehicle id="A5E9.14" depart="35.00" color="yellow">
        <route edges="gneE63-n gneE45 gneE47 gneE55 gneE56 gneE64"/>
    </vehicle>
    <vehicle id="A5J5.14" depart="35.00" color="green">
        <route edges="gneE63-n gneE45 gneE47 gneE48 gneE49 gneE66"/>
    </vehicle>
    <vehicle id="E1A5.14" depart="35.00" color="grey">
        <route edges="gneE65-n gneE53 gneE54 gneE47-n gneE45-n gneE63"/>
    </vehicle>
    <vehicle id="E1E9.14" depart="35.00" color="yellow">
        <route edges="gneE65-n gneE53 gneE54 gneE55 gneE56 gneE64"/>
    </vehicle>
    <vehicle id="E1J5.14" depart="35.00" color="green">
        <route edges="gneE65-n gneE40 gneE39 gneE38 gneE66"/>
    </vehicle>
    <vehicle id="E9A5.14" depart="35.00" color="grey">
        <route edges="gneE64-n gneE34 gneE33 gneE32 gneE63"/>
    </vehicle>
    <vehicle id="E9E1.14" depart="35.00" color="red">
        <route edges="gneE64-n gneE56-n gneE55-n gneE54-n gneE53-n gneE65"/>
    </vehicle>
    <vehicle id="E9J5.14" depart="35.00" color="green">
        <route edges="gneE64-n gneE56-n gneE55-n gneE48 gneE49 gneE66"/>
    </vehicle>
    <vehicle id="J5A5.14" depart="35.00" color="grey">
        <route edges="gneE66-n gneE49-n gneE48-n gneE47-n gneE45-n gneE63"/>
    </vehicle>
    <vehicle id="J5E1.14" depart="35.00" color="red">
        <route edges="gneE66-n gneE49-n gneE48-n gneE54-n gneE53-n gneE65"/>
    </vehicle>
    <vehicle id="J5E9.14" depart="35.00" color="yellow">
        <route edges="gneE66-n gneE37 gneE36 gneE35 gneE64"/>
    </vehicle>
    <vehicle id="A5E1.15" depart="37.50" color="red">
        <route edges="gneE63-n gneE44 gneE42 gneE41 gneE65"/>
    </vehicle>
    <vehicle id="A5E9.15" depart="37.50" color="yellow">
        <route edges="gneE63-n gneE45 gneE47 gneE55 gneE56 gneE64"/>
    </vehicle>
    <vehicle id="A5J5.15" depart="37.50" color="green">
        <route edges="gneE63-n gneE45 gneE47 gneE48 gneE49 gneE66"/>
    </vehicle>
    <vehicle id="E1A5.15" depart="37.50" color="grey">
        <route edges="gneE65-n gneE53 gneE54 gneE47-n gneE45-n gneE63"/>
    </vehicle>
    <vehicle id="E1E9.15" depart="37.50" color="yellow">
        <route edges="gneE65-n gneE53 gneE54 gneE55 gneE56 gneE64"/>
    </vehicle>
    <vehicle id="E1J5.15" depart="37.50" color="green">
        <route edges="gneE65-n gneE40 gneE39 gneE38 gneE66"/>
    </vehicle>
    <vehicle id="E9A5.15" depart="37.50" color="grey">
        <route edges="gneE64-n gneE34 gneE33 gneE32 gneE63"/>
    </vehicle>
    <vehicle id="E9E1.15" depart="37.50" color="red">
        <route edges="gneE64-n gneE56-n gneE55-n gneE54-n gneE53-n gneE65"/>
    </vehicle>
    <vehicle id="E9J5.15" depart="37.50" color="green">
        <route edges="gneE64-n gneE56-n gneE55-n gneE48 gneE49 gneE66"/>
    </vehicle>
    <vehicle id="J5A5.15" depart="37.50" color="grey">
        <route edges="gneE66-n gneE49-n gneE48-n gneE47-n gneE45-n gneE63"/>
    </vehicle>
    <vehicle id="J5E1.15" depart="37.50" color="red">
        <route edges="gneE66-n gneE49-n gneE48-n gneE54-n gneE53-n gneE65"/>
    </vehicle>
    <vehicle id="J5E9.15" depart="37.50" color="yellow">
        <route edges="gneE66-n gneE37 gneE36 gneE35 gneE64"/>
    </vehicle>
    <vehicle id="A5E1.16" depart="40.00" color="red">
        <route edges="gneE63-n gneE44 gneE42 gneE41 gneE65"/>
    </vehicle>
    <vehicle id="A5E9.16" depart="40.00" color="yellow">
        <route edges="gneE63-n gneE45 gneE47 gneE55 gneE56 gneE64"/>
    </vehicle>
    <vehicle id="A5J5.16" depart="40.00" color="green">
        <route edges="gneE63-n gneE45 gneE47 gneE48 gneE49 gneE66"/>
    </vehicle>
    <vehicle id="E1A5.16" depart="40.00" color="grey">
        <route edges="gneE65-n gneE53 gneE54 gneE47-n gneE45-n gneE63"/>
    </vehicle>
    <vehicle id="E1E9.16" depart="40.00" color="yellow">
        <route edges="gneE65-n gneE53 gneE54 gneE55 gneE56 gneE64"/>
    </vehicle>
    <vehicle id="E1J5.16" depart="40.00" color="green">
        <route edges="gneE65-n gneE40 gneE39 gneE38 gneE66"/>
    </vehicle>
    <vehicle id="E9A5.16" depart="40.00" color="grey">
        <route edges="gneE64-n gneE34 gneE33 gneE32 gneE63"/>
    </vehicle>
    <vehicle id="E9E1.16" depart="40.00" color="red">
        <route edges="gneE64-n gneE56-n gneE55-n gneE54-n gneE53-n gneE65"/>
    </vehicle>
    <vehicle id="E9J5.16" depart="40.00" color="green">
        <route edges="gneE64-n gneE56-n gneE55-n gneE48 gneE49 gneE66"/>
    </vehicle>
    <vehicle id="J5A5.16" depart="40.00" color="grey">
        <route edges="gneE66-n gneE49-n gneE48-n gneE47-n gneE45-n gneE63"/>
    </vehicle>
    <vehicle id="J5E1.16" depart="40.00" color="red">
        <route edges="gneE66-n gneE49-n gneE48-n gneE54-n gneE53-n gneE65"/>
    </vehicle>
    <vehicle id="J5E9.16" depart="40.00" color="yellow">
        <route edges="gneE66-n gneE37 gneE36 gneE35 gneE64"/>
    </vehicle>
    <vehicle id="A5E1.17" depart="42.50" color="red">
        <route edges="gneE63-n gneE44 gneE42 gneE41 gneE65"/>
    </vehicle>