<?xml version="1.0" encoding="UTF-8"?>

<configuration>
    <input>
        <net-file value="5x5_TLS.net.xml"/>
        <route-files value="TLS_changing_props/routes/5x5_TLS_90_10.rou.xml"/>
    </input>
    <time>
        <begin value="0"/>
        <end value="60000"/>
    </time>
    <time-to-teleport value="200"/>
    <!-- If the value is not positive, teleporting due to grid-lock is disabled. -->
</configuration>