<configuration>
    <input>
        <net-file value="arterialGrid.net.xml"/>
        <route-files value="arterialGrid.rou.xml"/>
		<additional-files value="arterialGrid.add.xml" />
    </input>
    <time>
        <begin value="0"/>
        <end value="100000"/>
    </time>

</configuration>

