<?xml version="1.0" encoding="UTF-8"?>

<configuration>
    <input>
        <net-file value="spider4c10a.net.xml"/>
	<route-files value="spider4c10a.rou.xml"/>
    </input>
    <time>
        <begin value="0"/>
        <end value="10000"/>
    </time>
    <time-to-teleport value="200"/> 
    <!-- If the value is not positive, teleporting due to grid-lock is disabled. -->
</configuration>