<?xml version="1.0" encoding="UTF-8"?>

<!-- generated on Fri Mar  5 11:56:25 2021 by Eclipse SUMO duarouter Version 1.8.0
<configuration xmlns:xsi="http://www.w3.org/2001/XMLSchema-instance" xsi:noNamespaceSchemaLocation="http://sumo.dlr.de/xsd/duarouterConfiguration.xsd">

    <input>
        <net-file value="spider4c10a.net.xml"/>
        <route-files value="trips.trips.xml"/>
    </input>

    <output>
        <output-file value="spider4c10a.rou.xml"/>
        <alternatives-output value="spider4c10a.rou.alt.xml"/>
    </output>

    <time>
        <begin value="0"/>
        <end value="3000"/>
    </time>

    <report>
        <no-warnings value="true"/>
        <ignore-errors value="true"/>
        <no-step-log value="true"/>
    </report>

</configuration>
-->

<routes xmlns:xsi="http://www.w3.org/2001/XMLSchema-instance" xsi:noNamespaceSchemaLocation="http://sumo.dlr.de/xsd/routes_file.xsd">
    <vehicle id="0" depart="0.00">
        <route edges="D4E4 E4E3 E3D3 D3C3 C3B3 B3B2 B2B1 B1B10"/>
    </vehicle>
    <vehicle id="1" depart="1.20">
        <route edges="C2B2 B2B1 B1B10 B10C10 C10C1"/>
    </vehicle>
    <vehicle id="2" depart="2.40">
        <route edges="D8D7 D7D6 D6C6"/>
    </vehicle>
    <vehicle id="3" depart="3.60">
        <route edges="E4E5 E5D5 D5C5 C5B5 B5B4 B4B3"/>
    </vehicle>
    <vehicle id="4" depart="4.80">
        <route edges="C7C6 C6B6 B6B7 B7B8 B8B9 B9B10 B10B1 B1B2"/>
    </vehicle>
    <vehicle id="5" depart="6.00">
        <route edges="C10B10 B10B1 B1C1 C1D1 D1D10 D10C10"/>
    </vehicle>
    <vehicle id="6" depart="7.20">
        <route edges="B1B10 B10C10 C10C9 C9B9 B9B10"/>
    </vehicle>
    <vehicle id="7" depart="8.40">
        <route edges="D5C5 C5C4 C4C3 C3C2 C2C1 C1D1 D1D2"/>
    </vehicle>
    <vehicle id="8" depart="9.60">
        <route edges="C10B10 B10B1 B1B2 B2C2 C2D2 D2D3 D3C3"/>
    </vehicle>
    <vehicle id="9" depart="10.80">
        <route edges="E1D1 D1C1 C1C10 C10B10 B10B1"/>
    </vehicle>
    <vehicle id="10" depart="12.00">
        <route edges="E10E9 E9D9 D9D8 D8D7 D7D6 D6E6"/>
    </vehicle>
    <vehicle id="11" depart="13.20">
        <route edges="C4C3 C3B3 B3B2 B2B1 B1B10 B10B9 B9B8 B8B7 B7B6"/>
    </vehicle>
    <vehicle id="12" depart="14.40">
        <route edges="E8D8 D8C8 C8C7 C7C6 C6C5 C5C4 C4C3"/>
    </vehicle>
    <vehicle id="13" depart="15.60">
        <route edges="B4B3 B3C3 C3C4 C4B4 B4B5"/>
    </vehicle>
    <vehicle id="14" depart="16.80">
        <route edges="E2E3 E3D3 D3D4"/>
    </vehicle>
    <vehicle id="15" depart="18.00">
        <route edges="E10E9 E9D9 D9D8 D8C8"/>
    </vehicle>
    <vehicle id="16" depart="19.20">
        <route edges="D1D10 D10D9 D9D8 D8E8 E8E9"/>
    </vehicle>
    <vehicle id="17" depart="20.40">
        <route edges="C5C6 C6B6 B6B5 B5B4 B4B3 B3B2 B2B1 B1C1 C1D1 D1E1"/>
    </vehicle>
    <vehicle id="18" depart="21.60">
        <route edges="E2D2 D2D3 D3D4 D4C4"/>
    </vehicle>
    <vehicle id="19" depart="22.80">
        <route edges="E3E2 E2D2 D2D3"/>
    </vehicle>
    <vehicle id="20" depart="24.00">
        <route edges="D7C7 C7B7 B7B6 B6B5 B5B4 B4B3 B3B2 B2B1"/>
    </vehicle>
    <vehicle id="21" depart="25.20">
        <route edges="C10C1 C1C2 C2C3"/>
    </vehicle>
    <vehicle id="22" depart="26.40">
        <route edges="B3C3 C3C2 C2C1 C1C10 C10C9"/>
    </vehicle>
    <vehicle id="23" depart="27.60">
        <route edges="B4C4 C4C3 C3C2 C2B2"/>
    </vehicle>
    <vehicle id="24" depart="28.80">
        <route edges="D4D5 D5C5 C5C4"/>
    </vehicle>
    <vehicle id="25" depart="30.00">
        <route edges="C5C4 C4B4 B4B3 B3B2 B2B1 B1B10 B10B9 B9C9"/>
    </vehicle>
    <vehicle id="26" depart="31.20">
        <route edges="C1D1 D1D10 D10D9 D9D8 D8E8 E8E7 E7D7"/>
    </vehicle>
    <vehicle id="27" depart="32.40">
        <route edges="D5C5 C5C4 C4C3 C3D3 D3E3"/>
    </vehicle>
    <vehicle id="28" depart="33.60">
        <route edges="B7C7 C7D7 D7D8 D8C8"/>
    </vehicle>
    <vehicle id="29" depart="34.80">
        <route edges="B7B8 B8C8 C8C7 C7C6 C6C5 C5D5"/>
    </vehicle>
    <vehicle id="30" depart="36.00">
        <route edges="E9E10 E10D10 D10C10 C10B10 B10B1 B1B2 B2B3 B3B4 B4C4 C4D4 D4E4"/>
    </vehicle>
    <vehicle id="31" depart="37.20">
        <route edges="D1E1 E1E10 E10D10 D10C10 C10C9 C9C8 C8C7 C7C6 C6D6 D6D5"/>
    </vehicle>
    <vehicle id="32" depart="38.40">
        <route edges="E2E1 E1D1 D1D10 D10D9 D9D8"/>
    </vehicle>
    <vehicle id="33" depart="39.60">
        <route edges="C10C9 C9B9 B9B10 B10B1 B1B2"/>
    </vehicle>
    <vehicle id="34" depart="40.80">
        <route edges="C3C4 C4B4 B4B3 B3B2 B2B1 B1C1 C1D1"/>
    </vehicle>
    <vehicle id="35" depart="42.00">
        <route edges="B9C9 C9C8 C8C7 C7D7 D7E7 E7E6"/>
    </vehicle>
    <vehicle id="36" depart="43.20">
        <route edges="E4D4 D4D3 D3C3 C3C4"/>
    </vehicle>
    <vehicle id="37" depart="44.40">
        <route edges="D5D4 D4C4 C4B4 B4B5 B5B6 B6C6 C6C5"/>
    </vehicle>
    <vehicle id="38" depart="45.60">
        <route edges="E6D6 D6C6 C6C7 C7C8 C8C9"/>
    </vehicle>
    <vehicle id="39" depart="46.80">
        <route edges="C1D1 D1D10 D10C10 C10C1 C1B1"/>
    </vehicle>
    <vehicle id="40" depart="48.00">
        <route edges="D2C2 C2B2 B2B1 B1C1 C1C2"/>
    </vehicle>
    <vehicle id="41" depart="49.20">
        <route edges="D2E2 E2E3 E3E4 E4E5 E5D5"/>
    </vehicle>
    <vehicle id="42" depart="50.40">
        <route edges="C6C5 C5C4 C4C3 C3C2 C2C1 C1C10 C10B10"/>
    </vehicle>
    <vehicle id="43" depart="51.60">
        <route edges="E9E8 E8D8 D8D9 D9D10 D10D1"/>
    </vehicle>
    <vehicle id="44" depart="52.80">
        <route edges="B4B3 B3B2 B2B1"/>
    </vehicle>
    <vehicle id="45" depart="54.00">
        <route edges="B5B4 B4C4 C4D4 D4D3"/>
    </vehicle>
    <vehicle id="46" depart="55.20">
        <route edges="E10D10 D10C10 C10C9 C9C8 C8C7 C7C6"/>
    </vehicle>
    <vehicle id="47" depart="56.40">
        <route edges="B2C2 C2C3 C3C4 C4C5 C5D5"/>
    </vehicle>
    <vehicle id="48" depart="57.60">
        <route edges="E9E8 E8D8 D8D9 D9D10 D10D1 D1C1"/>
    </vehicle>
    <vehicle id="49" depart="58.80">
        <route edges="E8E7 E7D7 D7C7 C7C6 C6C5 C5C4 C4C3 C3D3 D3E3 E3E2"/>
    </vehicle>
    <vehicle id="50" depart="60.00">
        <route edges="B10B9 B9B8 B8B7 B7C7 C7D7 D7D8"/>
    </vehicle>
    <vehicle id="51" depart="61.20">
        <route edges="D6D5 D5D4 D4D3 D3D2 D2D1 D1D10"/>
    </vehicle>
    <vehicle id="52" depart="62.40">
        <route edges="C1D1 D1D2 D2D3 D3D4 D4E4"/>
    </vehicle>
    <vehicle id="53" depart="63.60">
        <route edges="B5B4 B4C4 C4C5 C5C6 C6C7 C7C8"/>
    </vehicle>
    <vehicle id="54" depart="64.80">
        <route edges="C8C7 C7D7 D7E7 E7E8"/>
    </vehicle>
    <vehicle id="55" depart="66.00">
        <route edges="E4D4 D4C4 C4B4 B4B3 B3B2 B2B1 B1C1 C1C2"/>
    </vehicle>
    <vehicle id="56" depart="67.20">
        <route edges="D10C10 C10C9 C9C8 C8B8 B8B9"/>
    </vehicle>
    <vehicle id="57" depart="68.40">
        <route edges="E5E6 E6D6 D6D5 D5D4 D4D3 D3E3 E3E4"/>
    </vehicle>
    <vehicle id="58" depart="69.60">
        <route edges="C2D2 D2D3 D3D4 D4E4"/>
    </vehicle>
    <vehicle id="59" depart="70.80">
        <route edges="D3E3 E3E2 E2D2 D2C2 C2B2 B2B1 B1B10 B10B9 B9B8 B8B7 B7B6"/>
    </vehicle>
    <vehicle id="60" depart="72.00">
        <route edges="D9C9 C9C10 C10C1 C1D1 D1D10"/>
    </vehicle>
    <vehicle id="61" depart="73.20">
        <route edges="D9E9 E9E10 E10D10 D10D1 D1C1"/>
    </vehicle>
    <vehicle id="62" depart="74.40">
        <route edges="B10B1 B1B2 B2B3 B3C3 C3D3"/>
    </vehicle>
    <vehicle id="63" depart="75.60">
        <route edges="B10C10 C10C9 C9C8 C8C7 C7C6 C6D6 D6E6 E6E7"/>
    </vehicle>
    <vehicle id="64" depart="76.80">
        <route edges="E4E3 E3E2 E2D2"/>
    </vehicle>
    <vehicle id="65" depart="78.00">
        <route edges="C3C2 C2C1 C1B1 B1B2 B2C2"/>
    </vehicle>
    <vehicle id="66" depart="79.20">
        <route edges="E4D4 D4D5 D5D6 D6D7 D7E7 E7E6"/>
    </vehicle>
    <vehicle id="67" depart="80.40">
        <route edges="B3C3 C3C2 C2C1 C1C10 C10C9 C9C8"/>
    </vehicle>
    <vehicle id="68" depart="81.60">
        <route edges="B3B2 B2B1 B1B10 B10C10 C10D10 D10D9 D9C9"/>
    </vehicle>
    <vehicle id="69" depart="82.80">
        <route edges="D9D10 D10C10 C10B10 B10B9 B9B8 B8B7 B7B6 B6B5 B5C5"/>
    </vehicle>
    <vehicle id="70" depart="84.00">
        <route edges="C9B9 B9B10 B10B1 B1C1 C1D1 D1D2"/>
    </vehicle>
    <vehicle id="71" depart="85.20">
        <route edges="C1D1 D1D2 D2D3 D3E3 E3E4 E4D4"/>
    </vehicle>
    <vehicle id="72" depart="86.40">
        <route edges="C7C6 C6B6 B6B7 B7B8 B8B9 B9C9"/>
    </vehicle>
    <vehicle id="73" depart="87.60">
        <route edges="D1D10 D10D9 D9D8 D8C8"/>
    </vehicle>
    <vehicle id="74" depart="88.80">
        <route edges="B9B8 B8B7 B7B6 B6B5 B5B4 B4B3 B3C3 C3C2"/>
    </vehicle>
    <vehicle id="75" depart="90.00">
        <route edges="E9E8 E8D8 D8D7 D7D6 D6D5 D5C5"/>
    </vehicle>
    <vehicle id="76" depart="91.20">
        <route edges="C7D7 D7D8 D8C8 C8C9 C9C10 C10D10 D10D9"/>
    </vehicle>
    <vehicle id="77" depart="92.40">
        <route edges="B5B6 B6B7 B7B8 B8B9 B9B10 B10C10 C10C1"/>
    </vehicle>
    <vehicle id="78" depart="93.60">
        <route edges="C4C3 C3C2 C2D2 D2D3 D3C3"/>
    </vehicle>
    <vehicle id="79" depart="94.80">
        <route edges="C10C9 C9D9 D9D10 D10C10 C10B10"/>
    </vehicle>
    <vehicle id="80" depart="96.00">
        <route edges="B3B2 B2C2 C2C3 C3C4 C4D4 D4D5"/>
    </vehicle>
    <vehicle id="81" depart="97.20">
        <route edges="C10C9 C9C8 C8C7 C7C6 C6C5 C5D5 D5E5 E5E4"/>
    </vehicle>
    <vehicle id="82" depart="98.40">
        <route edges="E3E2 E2D2 D2C2 C2C3 C3B3 B3B2"/>
    </vehicle>
    <vehicle id="83" depart="99.60">
        <route edges="C10D10 D10D9 D9C9 C9C8 C8C7 C7C6 C6C5 C5D5 D5E5"/>
    </vehicle>
    <vehicle id="84" depart="100.80">
        <route edges="B9C9 C9C8 C8B8 B8B7 B7B6 B6B5"/>
    </vehicle>
    <vehicle id="85" depart="102.00">
        <route edges="E6E7 E7D7 D7C7 C7B7 B7B6 B6B5 B5B4 B4B3 B3B2 B2C2 C2D2 D2D1"/>
    </vehicle>
    <vehicle id="86" depart="103.20">
        <route edges="C9B9 B9B10 B10C10 C10C9 C9D9 D9E9"/>
    </vehicle>
    <vehicle id="87" depart="104.40">
        <route edges="E1D1 D1C1 C1B1 B1B10 B10B9 B9B8 B8C8"/>
    </vehicle>
    <vehicle id="88" depart="105.60">
        <route edges="B4B5 B5B6 B6B7 B7C7 C7C8"/>
    </vehicle>
    <vehicle id="89" depart="106.80">
        <route edges="C7C6 C6B6 B6B7 B7B8 B8C8 C8D8"/>
    </vehicle>
    <vehicle id="90" depart="108.00">
        <route edges="D8C8 C8C7 C7D7 D7D6 D6C6"/>
    </vehicle>
    <vehicle id="91" depart="109.20">
        <route edges="E9D9 D9C9 C9B9 B9B10 B10B1 B1B2 B2B3 B3B4 B4B5"/>
    </vehicle>
    <vehicle id="92" depart="110.40">
        <route edges="C6C7 C7B7 B7B6 B6B5 B5B4 B4C4 C4C3"/>
    </vehicle>
    <vehicle id="93" depart="111.60">
        <route edges="E3E2 E2D2 D2C2 C2C1 C1B1"/>
    </vehicle>
    <vehicle id="94" depart="112.80">
        <route edges="B8C8 C8D8 D8D7 D7C7 C7C8 C8B8"/>
    </vehicle>
    <vehicle id="95" depart="114.00">
        <route edges="C7C6 C6C5 C5C4 C4C3 C3C2 C2B2"/>
    </vehicle>
    <vehicle id="96" depart="115.20">
        <route edges="C1B1 B1B10 B10B9 B9B8 B8B7 B7B6 B6C6 C6D6 D6E6 E6E5"/>
    </vehicle>
    <vehicle id="97" depart="116.40">
        <route edges="C8B8 B8B7 B7B6 B6B5 B5B4 B4B3 B3C3 C3D3 D3E3 E3E2"/>
    </vehicle>
    <vehicle id="98" depart="117.60">
        <route edges="D1E1 E1E2 E2D2 D2C2 C2B2 B2B3"/>
    </vehicle>
    <vehicle id="99" depart="118.80">
        <route edges="E9E8 E8D8 D8C8 C8B8 B8B9 B9B10 B10B1 B1B2 B2C2 C2D2 D2E2 E2E1"/>
    </vehicle>
    <vehicle id="100" depart="120.00">
        <route edges="E8E7 E7E6 E6E5"/>
    </vehicle>
    <vehicle id="101" depart="121.20">
        <route edges="E2E3 E3D3 D3C3 C3B3 B3B4 B4B5 B5B6 B6B7 B7C7"/>
    </vehicle>
    <vehicle id="102" depart="122.40">
        <route edges="C9C10 C10B10 B10B9 B9C9"/>
    </vehicle>
    <vehicle id="103" depart="123.60">
        <route edges="C6C7 C7B7 B7B6 B6B5 B5B4 B4B3 B3B2 B2C2"/>
    </vehicle>
    <vehicle id="104" depart="124.80">
        <route edges="C5D5 D5D6 D6D7 D7D8 D8E8 E8E9 E9D9"/>
    </vehicle>
    <vehicle id="105" depart="126.00">
        <route edges="C1D1 D1D10 D10D9 D9E9"/>
    </vehicle>
    <vehicle id="106" depart="127.20">
        <route edges="C8C7 C7C6"/>
    </vehicle>
    <vehicle id="107" depart="128.40">
        <route edges="E8D8 D8D9 D9E9 E9E8"/>
    </vehicle>
    <vehicle id="108" depart="129.60">
        <route edges="D1E1 E1E10 E10D10 D10C10 C10C9 C9C8 C8C7 C7D7 D7D8"/>
    </vehicle>
    <vehicle id="109" depart="130.80">
        <route edges="B7B6 B6B5 B5B4 B4B3 B3B2 B2C2 C2D2"/>
    </vehicle>
    <vehicle id="110" depart="132.00">
        <route edges="E8E7 E7D7 D7C7 C7B7 B7B6 B6B5 B5B4 B4B3 B3B2 B2C2 C2D2 D2E2"/>
    </vehicle>
    <vehicle id="111" depart="133.20">
        <route edges="D1D10 D10C10 C10C9 C9C8 C8D8 D8D9"/>
    </vehicle>
    <vehicle id="112" depart="134.40">
        <route edges="B2C2 C2D2 D2E2"/>
    </vehicle>
    <vehicle id="113" depart="135.60">
        <route edges="D10C10 C10C1 C1C2 C2D2 D2E2 E2E3 E3D3"/>
    </vehicle>
    <vehicle id="114" depart="136.80">
        <route edges="B7B8 B8B9 B9C9 C9D9 D9E9 E9E8 E8D8"/>
    </vehicle>
    <vehicle id="115" depart="138.00">
        <route edges="B3C3 C3C2 C2B2 B2B1 B1B10 B10B9 B9B8 B8C8"/>
    </vehicle>
    <vehicle id="116" depart="139.20">
        <route edges="D3D2 D2C2 C2C3 C3C4 C4C5 C5D5 D5D6 D6C6"/>
    </vehicle>
    <vehicle id="117" depart="140.40">
        <route edges="C10C9 C9B9 B9B10 B10B1 B1B2 B2B3 B3B4 B4B5 B5B6"/>
    </vehicle>
    <vehicle id="118" depart="141.60">
        <route edges="E4E5 E5D5 D5C5 C5C4 C4C3 C3C2 C2C1 C1B1"/>
    </vehicle>
    <vehicle id="119" depart="142.80">
        <route edges="D3D2 D2C2 C2C3 C3D3 D3D4 D4C4"/>
    </vehicle>
    <vehicle id="120" depart="144.00">
        <route edges="C7B7 B7B6 B6B5 B5B4 B4B3 B3B2 B2C2 C2D2 D2E2"/>
    </vehicle>
    <vehicle id="121" depart="145.20">
        <route edges="D10E10 E10E9 E9D9 D9D8 D8D7 D7D6 D6E6 E6E7"/>
    </vehicle>
    <vehicle id="122" depart="146.40">
        <route edges="B9B8 B8B7 B7C7 C7D7 D7D8"/>
    </vehicle>
    <vehicle id="123" depart="147.60">
        <route edges="C10D10 D10D9 D9C9 C9C8 C8C7 C7C6 C6C5"/>
    </vehicle>
    <vehicle id="124" depart="148.80">
        <route edges="D6C6 C6C5 C5C4 C4C3 C3C2 C2D2"/>
    </vehicle>
    <vehicle id="125" depart="150.00">
        <route edges="C3C4 C4C5 C5C6 C6C7 C7C8 C8D8 D8E8"/>
    </vehicle>
    <vehicle id="126" depart="151.20">
        <route edges="B3B4 B4B5 B5B6 B6B7 B7B8 B8C8 C8C9"/>
    </vehicle>
    <vehicle id="127" depart="152.40">
        <route edges="E9E8"/>
    </vehicle>
    <vehicle id="128" depart="153.60">
        <route edges="B3B4 B4B5 B5B6 B6B7 B7B8 B8B9 B9C9"/>
    </vehicle>
    <vehicle id="129" depart="154.80">
        <route edges="C1D1 D1D10 D10C10 C10C9 C9C8 C8C7 C7C6 C6D6 D6E6 E6E7"/>
    </vehicle>
    <vehicle id="130" depart="156.00">
        <route edges="E4E3"/>
    </vehicle>
    <vehicle id="131" depart="157.20">
        <route edges="C5C4 C4B4 B4B5 B5B6 B6B7 B7B8"/>
    </vehicle>
    <vehicle id="132" depart="158.40">
        <route edges="E2D2 D2C2 C2C1 C1C10 C10C9 C9C8 C8D8 D8D7 D7C7"/>
    </vehicle>
    <vehicle id="133" depart="159.60">
        <route edges="D3E3 E3E2 E2D2 D2D1 D1D10 D10D9 D9E9 E9E10"/>
    </vehicle>
    <vehicle id="134" depart="160.80">
        <route edges="D5D4 D4C4 C4B4 B4B3 B3B2 B2B1 B1B10 B10B9"/>
    </vehicle>
    <vehicle id="135" depart="162.00">
        <route edges="E1E10 E10D10 D10C10 C10C1 C1C2 C2D2"/>
    </vehicle>
    <vehicle id="136" depart="163.20">
        <route edges="D5D6 D6E6 E6E7 E7D7"/>
    </vehicle>
    <vehicle id="137" depart="164.40">
        <route edges="B6B5 B5C5 C5C4 C4B4 B4B5 B5B6"/>
    </vehicle>
    <vehicle id="138" depart="165.60">
        <route edges="B4C4 C4C3 C3C2 C2C1 C1D1 D1E1"/>
    </vehicle>
    <vehicle id="139" depart="166.80">
        <route edges="C2B2 B2B3 B3C3 C3D3 D3D4"/>
    </vehicle>
    <vehicle id="140" depart="168.00">
        <route edges="D7D8 D8C8 C8C9 C9B9 B9B8"/>
    </vehicle>
    <vehicle id="141" depart="169.20">
        <route edges="D4D5 D5C5 C5B5 B5B4 B4B3 B3B2 B2B1 B1C1 C1C2"/>
    </vehicle>
    <vehicle id="142" depart="170.40">
        <route edges="C9C8 C8C7 C7C6 C6C5 C5D5 D5E5 E5E4"/>
    </vehicle>
    <vehicle id="143" depart="171.60">
        <route edges="E2E3 E3D3 D3C3 C3C4 C4B4 B4B3"/>
    </vehicle>
    <vehicle id="144" depart="172.80">
        <route edges="C7C6 C6C5 C5C4 C4C3 C3C2 C2B2"/>
    </vehicle>
    <vehicle id="145" depart="174.00">
        <route edges="B10B1 B1C1 C1C10 C10C9 C9D9 D9D10"/>
    </vehicle>
    <vehicle id="146" depart="175.20">
        <route edges="D4E4 E4E3 E3D3 D3D2 D2D1 D1C1 C1C2"/>
    </vehicle>
    <vehicle id="147" depart="176.40">
        <route edges="D8D7 D7C7 C7B7 B7B8 B8B9 B9B10 B10B1 B1C1 C1D1 D1E1"/>
    </vehicle>
    <vehicle id="148" depart="177.60">
        <route edges="C7C6 C6B6 B6B5 B5B4 B4B3 B3B2 B2B1 B1B10 B10B9"/>
    </vehicle>
    <vehicle id="149" depart="178.80">
        <route edges="B3B4 B4C4 C4D4 D4E4 E4E3"/>
    </vehicle>
    <vehicle id="150" depart="180.00">
        <route edges="E5E4 E4D4 D4C4 C4C3 C3C2 C2C1 C1D1 D1D2"/>
    </vehicle>
    <vehicle id="151" depart="181.20">
        <route edges="E2D2 D2C2 C2C3 C3D3 D3D2 D2E2"/>
    </vehicle>
    <vehicle id="152" depart="182.40">
        <route edges="B6C6 C6C7 C7B7 B7B6 B6B5 B5C5"/>
    </vehicle>
    <vehicle id="153" depart="183.60">
        <route edges="C3C2 C2B2 B2B3 B3B4 B4C4 C4D4 D4E4 E4E5 E5D5"/>
    </vehicle>
    <vehicle id="154" depart="184.80">
        <route edges="E10E1 E1D1 D1D2 D2D3 D3E3 E3E2"/>
    </vehicle>
    <vehicle id="155" depart="186.00">
        <route edges="E5D5 D5C5 C5B5 B5B6 B6B7 B7B8 B8B9 B9C9"/>
    </vehicle>
    <vehicle id="156" depart="187.20">
        <route edges="C1B1 B1B2 B2B3 B3B4 B4C4"/>
    </vehicle>
    <vehicle id="157" depart="188.40">
        <route edges="D9E9 E9E8 E8D8 D8C8 C8C7 C7C6 C6C5 C5C4 C4D4 D4E4 E4E3"/>
    </vehicle>
    <vehicle id="158" depart="189.60">
        <route edges="C6C7 C7D7 D7D6 D6D5 D5D4 D4C4"/>
    </vehicle>
    <vehicle id="159" depart="190.80">
        <route edges="B7B6 B6C6 C6D6 D6E6 E6E7"/>
    </vehicle>
    <vehicle id="160" depart="192.00">
        <route edges="E3E4 E4D4 D4C4 C4B4 B4B5 B5B6 B6B7 B7B8 B8C8 C8D8 D8E8 E8E9"/>
    </vehicle>
    <vehicle id="161" depart="193.20">
        <route edges="E1D1 D1D2 D2D3 D3D4 D4E4 E4E3"/>
    </vehicle>
    <vehicle id="162" depart="194.40">
        <route edges="B1B10 B10B9 B9B8 B8C8 C8D8 D8D7"/>
    </vehicle>
    <vehicle id="163" depart="195.60">
        <route edges="C4B4 B4B5 B5B6 B6C6 C6D6 D6E6 E6E7"/>
    </vehicle>
    <vehicle id="164" depart="196.80">
        <route edges="E10E9 E9D9 D9C9 C9B9 B9B10 B10B1 B1B2 B2B3 B3C3 C3D3 D3E3 E3E2"/>
    </vehicle>
    <vehicle id="165" depart="198.00">
        <route edges="E1D1 D1D10 D10C10 C10C1 C1D1"/>
    </vehicle>
    <vehicle id="166" depart="199.20">
        <route edges="E10D10 D10C10 C10B10 B10B9 B9B8 B8B7 B7B6 B6B5 B5B4"/>
    </vehicle>
    <vehicle id="167" depart="200.40">
        <route edges="E4D4 D4D3 D3E3 E3E2"/>
    </vehicle>
    <vehicle id="168" depart="201.60">
        <route edges="C10C1 C1D1 D1E1 E1E10"/>
    </vehicle>
    <vehicle id="169" depart="202.80">
        <route edges="C8C9 C9C10 C10C1 C1C2 C2C3 C3B3"/>
    </vehicle>
    <vehicle id="170" depart="204.00">
        <route edges="E10E1 E1D1 D1D10 D10C10 C10C1"/>
    </vehicle>
    <vehicle id="171" depart="205.20">
        <route edges="B1B10 B10C10 C10C9 C9B9 B9B10"/>
    </vehicle>
    <vehicle id="172" depart="206.40">
        <route edges="C3D3 D3E3 E3E4"/>
    </vehicle>
    <vehicle id="173" depart="207.60">
        <route edges="E8E7 E7D7 D7C7 C7B7 B7B6 B6B5 B5B4 B4B3 B3B2 B2C2 C2C1"/>
    </vehicle>
    <vehicle id="174" depart="208.80">
        <route edges="D4E4 E4E5 E5D5 D5D6 D6C6 C6C5"/>
    </vehicle>
    <vehicle id="175" depart="210.00">
        <route edges="E9D9 D9C9 C9C10 C10C1 C1D1 D1D10"/>
    </vehicle>
    <vehicle id="176" depart="211.20">
        <route edges="E7D7 D7C7 C7C6 C6C5 C5B5 B5B6"/>
    </vehicle>
    <vehicle id="177" depart="212.40">
        <route edges="E8E7 E7D7 D7C7 C7C8 C8B8 B8B7"/>
    </vehicle>
    <vehicle id="178" depart="213.60">
        <route edges="E8D8 D8C8 C8C9 C9C10 C10C1 C1D1"/>
    </vehicle>
    <vehicle id="179" depart="214.80">
        <route edges="B5B4 B4C4 C4C5 C5C6 C6C7 C7C8"/>
    </vehicle>
    <vehicle id="180" depart="216.00">
        <route edges="D7E7 E7E6 E6D6 D6C6 C6C5 C5C4 C4C3 C3C2"/>
    </vehicle>
    <vehicle id="181" depart="217.20">
        <route edges="D3D4 D4C4 C4C3 C3C2 C2C1 C1C10 C10D10 D10D1"/>
    </vehicle>
    <vehicle id="182" depart="218.40">
        <route edges="C5D5 D5D4 D4C4 C4C3 C3C2 C2D2 D2D3"/>
    </vehicle>
    <vehicle id="183" depart="219.60">
        <route edges="C1C10 C10C9 C9C8 C8C7 C7D7 D7D6"/>
    </vehicle>
    <vehicle id="184" depart="220.80">
        <route edges="B10B1 B1B2 B2B3 B3B4 B4B5 B5B6 B6C6 C6D6 D6E6 E6E5"/>
    </vehicle>
    <vehicle id="185" depart="222.00">
        <route edges="D1D10 D10C10 C10C9 C9C8 C8C7 C7D7 D7D8"/>
    </vehicle>
    <vehicle id="186" depart="223.20">
        <route edges="D8D7 D7D6 D6D5 D5E5"/>
    </vehicle>
    <vehicle id="187" depart="224.40">
        <route edges="C5B5 B5B4 B4B3 B3B2"/>
    </vehicle>
    <vehicle id="188" depart="225.60">
        <route edges="D5D6 D6C6 C6C5 C5C4 C4B4"/>
    </vehicle>
    <vehicle id="189" depart="226.80">
        <route edges="C3C2 C2D2 D2E2 E2E3"/>
    </vehicle>
    <vehicle id="190" depart="228.00">
        <route edges="D7D8 D8C8 C8C7 C7C6 C6C5 C5C4 C4C3 C3B3"/>
    </vehicle>
    <vehicle id="191" depart="229.20">
        <route edges="C3C2 C2B2 B2B3 B3B4 B4B5 B5B6 B6C6 C6D6"/>
    </vehicle>
    <vehicle id="192" depart="230.40">
        <route edges="C6C7 C7B7 B7B6 B6B5 B5B4 B4B3 B3B2 B2C2 C2D2"/>
    </vehicle>
    <vehicle id="193" depart="231.60">
        <route edges="B5C5 C5C6 C6C7 C7B7"/>
    </vehicle>
    <vehicle id="194" depart="232.80">
        <route edges="E7D7 D7D6 D6C6"/>
    </vehicle>
    <vehicle id="195" depart="234.00">
        <route edges="E5E4 E4D4 D4C4"/>
    </vehicle>
    <vehicle id="196" depart="235.20">
        <route edges="C3B3 B3B2 B2B1 B1C1 C1D1 D1D2"/>
    </vehicle>
    <vehicle id="197" depart="236.40">
        <route edges="B10B1 B1B2 B2C2 C2C3"/>
    </vehicle>
    <vehicle id="198" depart="237.60">
        <route edges="C7C8 C8C9 C9C10 C10C1 C1C2 C2D2 D2E2"/>
    </vehicle>
    <vehicle id="199" depart="238.80">
        <route edges="D5D4 D4C4 C4B4 B4B5 B5B6 B6B7 B7B8 B8C8 C8D8"/>
    </vehicle>
    <vehicle id="200" depart="240.00">
        <route edges="C7D7 D7D8 D8C8 C8B8 B8B9 B9C9"/>
    </vehicle>
    <vehicle id="201" depart="241.20">
        <route edges="C9B9 B9B8 B8B7 B7B6 B6B5 B5C5 C5D5 D5E5 E5E4"/>
    </vehicle>
    <vehicle id="202" depart="242.40">
        <route edges="E10E1 E1D1 D1C1 C1B1 B1B10 B10B9 B9B8 B8B7 B7C7"/>
    </vehicle>
    <vehicle id="203" depart="243.60">
        <route edges="B3C3 C3C2 C2C1 C1C10 C10D10 D10D9"/>
    </vehicle>
    <vehicle id="204" depart="244.80">
        <route edges="D4D5 D5C5 C5C4 C4B4"/>
    </vehicle>
    <vehicle id="205" depart="246.00">
        <route edges="E1E10 E10D10 D10D9 D9D8 D8E8"/>
    </vehicle>
    <vehicle id="206" depart="247.20">
        <route edges="D6C6 C6C7 C7C8 C8C9 C9C10 C10C1"/>
    </vehicle>
    <vehicle id="207" depart="248.40">
        <route edges="B9B10 B10C10 C10C1 C1B1 B1B10"/>
    </vehicle>
    <vehicle id="208" depart="249.60">
        <route edges="C1B1 B1B10 B10C10 C10C9 C9B9"/>
    </vehicle>
    <vehicle id="209" depart="250.80">
        <route edges="E2E3 E3D3 D3C3 C3B3 B3B4"/>
    </vehicle>
    <vehicle id="210" depart="252.00">
        <route edges="C7B7 B7B6 B6B5 B5B4 B4C4 C4D4 D4D5"/>
    </vehicle>
    <vehicle id="211" depart="253.20">
        <route edges="B9B10 B10B1 B1B2 B2B3 B3B4 B4B5 B5B6 B6C6 C6D6 D6E6"/>
    </vehicle>
    <vehicle id="212" depart="254.40">
        <route edges="C9D9 D9D10 D10C10 C10C1 C1B1"/>
    </vehicle>
    <vehicle id="213" depart="255.60">
        <route edges="D5D4 D4C4 C4B4 B4B5 B5B6 B6B7 B7B8 B8B9 B9B10 B10B1"/>
    </vehicle>
    <vehicle id="214" depart="256.80">
        <route edges="D8E8 E8E9 E9D9 D9D10"/>
    </vehicle>
    <vehicle id="215" depart="258.00">
        <route edges="B4C4 C4C5 C5B5 B5B6 B6B7 B7C7 C7C6"/>
    </vehicle>
    <vehicle id="216" depart="259.20">
        <route edges="B8B7 B7C7 C7D7 D7E7 E7E8 E8D8"/>
    </vehicle>
    <vehicle id="217" depart="260.40">
        <route edges="D10D9 D9C9 C9B9 B9B10 B10B1 B1B2 B2B3"/>
    </vehicle>
    <vehicle id="218" depart="261.60">
        <route edges="C1B1 B1B2 B2C2 C2D2 D2E2 E2E3"/>
    </vehicle>
    <vehicle id="219" depart="262.80">
        <route edges="C8C7 C7B7 B7B8 B8B9 B9B10 B10C10 C10D10 D10E10 E10E9"/>
    </vehicle>
    <vehicle id="220" depart="264.00">
        <route edges="D5E5 E5E6 E6E7 E7E8 E8E9 E9E10"/>
    </vehicle>
    <vehicle id="221" depart="265.20">
        <route edges="D3D2 D2C2 C2B2 B2B1 B1B10 B10B9 B9B8 B8B7 B7C7 C7D7 D7E7 E7E8"/>
    </vehicle>
    <vehicle id="222" depart="266.40">
        <route edges="E4E5 E5D5 D5D4 D4D3 D3E3"/>
    </vehicle>
    <vehicle id="223" depart="267.60">
        <route edges="D7D8 D8D9 D9D10 D10C10"/>
    </vehicle>
    <vehicle id="224" depart="268.80">
        <route edges="E2D2 D2C2 C2C1 C1D1 D1D2"/>
    </vehicle>
    <vehicle id="225" depart="270.00">
        <route edges="E5D5 D5D6 D6D7 D7D8 D8D9"/>
    </vehicle>
    <vehicle id="226" depart="271.20">
        <route edges="C9B9 B9B10 B10B1 B1C1 C1C2"/>
    </vehicle>
    <vehicle id="227" depart="272.40">
        <route edges="C1B1 B1B2 B2B3 B3B4 B4C4 C4D4 D4E4"/>
    </vehicle>
    <vehicle id="228" depart="273.60">
        <route edges="D9D10 D10C10 C10C1 C1D1 D1D10 D10D9"/>
    </vehicle>
    <vehicle id="229" depart="274.80">
        <route edges="D4D3 D3C3 C3C2 C2B2"/>
    </vehicle>
    <vehicle id="230" depart="276.00">
        <route edges="B3B4 B4C4 C4C3 C3B3 B3B2 B2C2 C2C3"/>
    </vehicle>
    <vehicle id="231" depart="277.20">
        <route edges="C2B2 B2B3 B3C3 C3C4"/>
    </vehicle>
    <vehicle id="232" depart="278.40">
        <route edges="D1D10 D10C10 C10B10 B10B1 B1B2 B2B3 B3B4 B4B5 B5B6 B6B7"/>
    </vehicle>
    <vehicle id="233" depart="279.60">
        <route edges="C10C9 C9C8 C8C7 C7C6 C6D6 D6E6"/>
    </vehicle>
    <vehicle id="234" depart="280.80">
        <route edges="D7C7 C7B7 B7B6 B6B5 B5B4 B4B3 B3B2 B2C2"/>
    </vehicle>
    <vehicle id="235" depart="282.00">
        <route edges="C6D6 D6D5 D5D4 D4D3 D3D2 D2D1 D1D10"/>
    </vehicle>
    <vehicle id="236" depart="283.20">
        <route edges="C7B7 B7B8 B8C8 C8C9 C9B9 B9B8"/>
    </vehicle>
    <vehicle id="237" depart="284.40">
        <route edges="C7B7 B7B6 B6B5 B5C5 C5D5 D5E5 E5E4"/>
    </vehicle>
    <vehicle id="238" depart="285.60">
        <route edges="D2E2 E2E3 E3D3 D3D4 D4D5 D5D6 D6E6"/>
    </vehicle>
    <vehicle id="239" depart="286.80">
        <route edges="E3D3 D3C3 C3C2 C2C1 C1C10 C10C9 C9D9 D9D10"/>
    </vehicle>
    <vehicle id="240" depart="288.00">
        <route edges="C5D5 D5D6 D6C6 C6B6 B6B7 B7B8 B8B9 B9B10 B10B1"/>
    </vehicle>
    <vehicle id="241" depart="289.20">
        <route edges="C4D4 D4D5 D5D6 D6D7 D7D8 D8E8"/>
    </vehicle>
    <vehicle id="242" depart="290.40">
        <route edges="E3D3 D3C3 C3B3 B3B4 B4B5 B5B6 B6B7 B7C7 C7D7 D7E7 E7E8"/>
    </vehicle>
    <vehicle id="243" depart="291.60">
        <route edges="C7B7 B7B8 B8C8 C8D8 D8D9"/>
    </vehicle>
    <vehicle id="244" depart="292.80">
        <route edges="D1D2 D2D3 D3D4"/>
    </vehicle>
    <vehicle id="245" depart="294.00">
        <route edges="C10B10"/>
    </vehicle>
    <vehicle id="246" depart="295.20">
        <route edges="C7D7 D7D8 D8C8 C8B8 B8B9 B9B10 B10B1 B1B2"/>
    </vehicle>
    <vehicle id="247" depart="296.40">
        <route edges="C4C3 C3B3 B3B4 B4B5 B5B6 B6C6 C6D6 D6D5"/>
    </vehicle>
    <vehicle id="248" depart="297.60">
        <route edges="C6C7 C7C8 C8B8 B8B7 B7C7"/>
    </vehicle>
    <vehicle id="249" depart="298.80">
        <route edges="C8D8 D8D7 D7C7 C7B7 B7B6 B6B5 B5C5"/>
    </vehicle>
    <vehicle id="250" depart="300.00">
        <route edges="D4D3 D3C3 C3B3 B3B2 B2B1 B1B10"/>
    </vehicle>
    <vehicle id="251" depart="301.20">
        <route edges="C6C5 C5C4 C4C3 C3C2 C2D2 D2D1"/>
    </vehicle>
    <vehicle id="252" depart="302.40">
        <route edges="B1B10 B10B9 B9B8 B8B7 B7B6 B6B5 B5B4 B4C4 C4D4 D4E4"/>
    </vehicle>
    <vehicle id="253" depart="303.60">
        <route edges="B6B5 B5C5 C5C6 C6C7 C7C8 C8C9"/>
    </vehicle>
    <vehicle id="254" depart="304.80">
        <route edges="B2B3 B3B4 B4B5 B5C5 C5D5"/>
    </vehicle>
    <vehicle id="255" depart="306.00">
        <route edges="B9C9 C9C10 C10C1 C1C2 C2C3 C3D3"/>
    </vehicle>
    <vehicle id="256" depart="307.20">
        <route edges="D9C9 C9C8 C8C7 C7C6 C6C5 C5D5"/>
    </vehicle>
    <vehicle id="257" depart="308.40">
        <route edges="D8E8 E8E9 E9E10 E10E1 E1E2 E2D2"/>
    </vehicle>
    <vehicle id="258" depart="309.60">
        <route edges="C1C10 C10B10 B10B1 B1B2 B2B3 B3C3"/>
    </vehicle>
    <vehicle id="259" depart="310.80">
        <route edges="B10C10 C10C1 C1D1 D1D10"/>
    </vehicle>
    <vehicle id="260" depart="312.00">
        <route edges="E9E8 E8D8 D8C8 C8B8 B8B7 B7B6 B6B5 B5B4 B4C4 C4C5"/>
    </vehicle>