<?xml version="1.0" encoding="UTF-8"?>

<!-- generated on Fri Mar  5 11:30:36 2021 by Eclipse SUMO netgenerate Version 1.8.0
<configuration xmlns:xsi="http://www.w3.org/2001/XMLSchema-instance" xsi:noNamespaceSchemaLocation="http://sumo.dlr.de/xsd/netgenerateConfiguration.xsd">

    <spider_network>
        <spider value="true"/>
        <spider.arm-number value="10"/>
        <spider.circle-number value="4"/>
        <spider.omit-center value="true"/>
    </spider_network>

    <output>
        <output-file value="spider4c10a.net.xml"/>
    </output>

    <building_defaults>
        <default.lanenumber value="2"/>
        <default-junction-type value="allway_stop"/>
    </building_defaults>

    <junctions>
        <no-turnarounds value="true"/>
    </junctions>

</configuration>
-->

<net version="1.6" junctionCornerDetail="5" limitTurnSpeed="5.50" xmlns:xsi="http://www.w3.org/2001/XMLSchema-instance" xsi:noNamespaceSchemaLocation="http://sumo.dlr.de/xsd/net_file.xsd">

    <location netOffset="400.00,380.42" convBoundary="0.00,0.00,800.00,760.85" origBoundary="-400.00,-380.42,400.00,380.42" projParameter="!"/>

    <edge id=":B1_0" function="internal">
        <lane id=":B1_0_0" index="0" speed="6.60" length="7.09" shape="507.56,385.22 505.70,385.46 504.19,386.19 503.03,387.40 502.23,389.09"/>
    </edge>
    <edge id=":B1_1" function="internal">
        <lane id=":B1_1_0" index="0" speed="8.13" length="11.15" shape="507.56,382.02 504.64,382.40 502.27,383.54 500.45,385.44 499.19,388.10"/>
    </edge>
    <edge id=":B1_2" function="internal">
        <lane id=":B1_2_0" index="0" speed="9.40" length="15.20" shape="507.56,382.02 503.57,381.50 500.34,379.95 497.87,377.36 496.14,373.73"/>
    </edge>
    <edge id=":B1_3" function="internal">
        <lane id=":B1_3_0" index="0" speed="6.60" length="7.09" shape="502.23,371.75 503.03,373.45 504.19,374.66 505.70,375.38 507.56,375.62"/>
    </edge>
    <edge id=":B1_4" function="internal">
        <lane id=":B1_4_0" index="0" speed="13.89" length="16.83" shape="502.23,371.75 503.74,376.78 504.24,380.42 503.74,384.06 502.23,389.09"/>
        <lane id=":B1_4_1" index="1" speed="13.89" length="16.83" shape="499.19,372.74 500.52,377.20 500.97,380.42 500.52,383.65 499.19,388.10"/>
    </edge>
    <edge id=":B1_6" function="internal">
        <lane id=":B1_6_0" index="0" speed="13.44" length="12.76" shape="493.10,386.13 494.09,382.82 494.42,380.42 494.09,378.03 493.10,374.72"/>
        <lane id=":B1_6_1" index="1" speed="13.89" length="12.76" shape="496.14,387.11 497.31,383.23 497.69,380.42 497.31,377.61 496.14,373.73"/>
    </edge>
    <edge id=":B1_8" function="internal">
        <lane id=":B1_8_0" index="0" speed="9.40" length="15.20" shape="496.14,387.11 497.87,383.49 500.34,380.90 503.57,379.34 507.56,378.82"/>
    </edge>
    <edge id=":B10_0" function="internal">
        <lane id=":B10_0_0" index="0" speed="13.44" length="12.76" shape="478.67,330.31 477.53,327.05 476.39,324.92 474.71,323.18 471.97,321.09"/>
        <lane id=":B10_0_1" index="1" speed="13.89" length="12.76" shape="481.71,329.32 480.37,325.50 479.04,323.00 477.07,320.95 473.85,318.50"/>
    </edge>
    <edge id=":B10_2" function="internal">
        <lane id=":B10_2_0" index="0" speed="9.40" length="15.20" shape="481.71,329.32 480.98,325.38 481.46,321.82 483.16,318.67 486.07,315.91"/>
    </edge>
    <edge id=":B10_3" function="internal">
        <lane id=":B10_3_0" index="0" speed="6.60" length="7.09" shape="489.84,321.09 488.47,322.37 487.68,323.85 487.46,325.50 487.80,327.35"/>
    </edge>
    <edge id=":B10_4" function="internal">
        <lane id=":B10_4_0" index="0" speed="8.13" length="11.15" shape="487.96,318.50 485.82,320.52 484.57,322.84 484.22,325.44 484.76,328.34"/>
    </edge>
    <edge id=":B10_5" function="internal">
        <lane id=":B10_5_0" index="0" speed="9.40" length="15.20" shape="487.96,318.50 484.43,320.42 480.90,321.06 477.37,320.42 473.85,318.50"/>
    </edge>
    <edge id=":B10_6" function="internal">
        <lane id=":B10_6_0" index="0" speed="6.60" length="7.09" shape="477.61,313.32 479.26,314.22 480.90,314.52 482.55,314.22 484.19,313.32"/>
    </edge>
    <edge id=":B10_7" function="internal">
        <lane id=":B10_7_0" index="0" speed="13.89" length="16.83" shape="477.61,313.32 481.78,316.50 484.33,319.15 486.07,322.39 487.80,327.35"/>
        <lane id=":B10_7_1" index="1" speed="13.89" length="16.83" shape="475.73,315.91 479.43,318.73 481.68,321.08 483.22,323.95 484.76,328.34"/>
    </edge>
    <edge id=":B2_0" function="internal">
        <lane id=":B2_0_0" index="0" speed="6.60" length="7.09" shape="484.19,447.53 482.55,446.63 480.90,446.33 479.26,446.63 477.61,447.53"/>
    </edge>
    <edge id=":B2_1" function="internal">
        <lane id=":B2_1_0" index="0" speed="8.13" length="11.15" shape="486.07,444.94 483.49,443.53 480.90,443.06 478.32,443.53 475.73,444.94"/>
    </edge>
    <edge id=":B2_2" function="internal">
        <lane id=":B2_2_0" index="0" speed="9.40" length="15.20" shape="486.07,444.94 483.16,442.18 481.46,439.02 480.98,435.47 481.71,431.52"/>
    </edge>
    <edge id=":B2_3" function="internal">
        <lane id=":B2_3_0" index="0" speed="6.60" length="7.09" shape="487.80,433.50 487.46,435.34 487.68,437.00 488.47,438.47 489.84,439.76"/>
    </edge>
    <edge id=":B2_4" function="internal">
        <lane id=":B2_4_0" index="0" speed="13.89" length="16.83" shape="487.80,433.50 486.07,438.45 484.33,441.69 481.78,444.34 477.61,447.53"/>
        <lane id=":B2_4_1" index="1" speed="13.89" length="16.83" shape="484.76,432.51 483.22,436.90 481.68,439.77 479.43,442.12 475.73,444.94"/>
    </edge>
    <edge id=":B2_6" function="internal">
        <lane id=":B2_6_0" index="0" speed="13.44" length="12.76" shape="471.97,439.76 474.71,437.67 476.39,435.92 477.53,433.79 478.67,430.53"/>
        <lane id=":B2_6_1" index="1" speed="13.89" length="12.76" shape="473.85,442.35 477.07,439.89 479.04,437.85 480.37,435.34 481.71,431.52"/>
    </edge>
    <edge id=":B2_8" function="internal">
        <lane id=":B2_8_0" index="0" speed="9.40" length="15.20" shape="473.85,442.35 477.37,440.43 480.90,439.79 484.43,440.43 487.96,442.35"/>
    </edge>
    <edge id=":B3_0" function="internal">
        <lane id=":B3_0_0" index="0" speed="6.60" length="7.09" shape="428.67,484.20 427.87,482.50 426.71,481.30 425.20,480.57 423.35,480.33"/>
    </edge>
    <edge id=":B3_1" function="internal">
        <lane id=":B3_1_0" index="0" speed="8.13" length="11.15" shape="431.71,483.21 430.45,480.55 428.63,478.65 426.27,477.51 423.35,477.13"/>
    </edge>
    <edge id=":B3_2" function="internal">
        <lane id=":B3_2_0" index="0" speed="9.40" length="15.20" shape="431.71,483.21 430.98,479.26 431.46,475.71 433.16,472.55 436.07,469.79"/>
    </edge>
    <edge id=":B3_3" function="internal">
        <lane id=":B3_3_0" index="0" speed="6.60" length="7.09" shape="439.84,474.97 438.47,476.26 437.68,477.73 437.46,479.39 437.80,481.23"/>
    </edge>
    <edge id=":B3_4" function="internal">
        <lane id=":B3_4_0" index="0" speed="13.89" length="16.83" shape="439.84,474.97 435.52,477.96 432.21,479.56 428.59,480.21 423.35,480.33"/>
        <lane id=":B3_4_1" index="1" speed="13.89" length="16.83" shape="437.96,472.38 434.13,475.03 431.20,476.45 427.99,477.02 423.35,477.13"/>
    </edge>
    <edge id=":B3_6" function="internal">
        <lane id=":B3_6_0" index="0" speed="13.44" length="12.76" shape="423.35,470.73 426.80,470.65 429.18,470.22 431.35,469.17 434.19,467.20"/>
        <lane id=":B3_6_1" index="1" speed="13.89" length="12.76" shape="423.35,473.93 427.40,473.84 430.19,473.34 432.74,472.10 436.07,469.79"/>
    </edge>
    <edge id=":B3_8" function="internal">
        <lane id=":B3_8_0" index="0" speed="9.40" length="15.20" shape="423.35,473.93 427.33,474.45 430.56,476.00 433.03,478.59 434.76,482.22"/>
    </edge>
    <edge id=":B4_0" function="internal">
        <lane id=":B4_0_0" index="0" speed="6.60" length="7.09" shape="376.65,480.33 374.80,480.57 373.29,481.30 372.13,482.50 371.33,484.20"/>
    </edge>
    <edge id=":B4_1" function="internal">
        <lane id=":B4_1_0" index="0" speed="13.89" length="16.83" shape="376.65,480.33 371.41,480.21 367.79,479.56 364.48,477.96 360.16,474.97"/>
        <lane id=":B4_1_1" index="1" speed="13.89" length="16.83" shape="376.65,477.13 372.01,477.02 368.80,476.45 365.87,475.03 362.04,472.38"/>
    </edge>
    <edge id=":B4_3" function="internal">
        <lane id=":B4_3_0" index="0" speed="13.44" length="12.76" shape="365.81,467.20 368.65,469.17 370.82,470.22 373.20,470.65 376.65,470.73"/>
        <lane id=":B4_3_1" index="1" speed="13.89" length="12.76" shape="363.93,469.79 367.26,472.10 369.81,473.34 372.60,473.84 376.65,473.93"/>
    </edge>
    <edge id=":B4_5" function="internal">
        <lane id=":B4_5_0" index="0" speed="9.40" length="15.20" shape="363.93,469.79 366.84,472.55 368.54,475.71 369.02,479.26 368.29,483.21"/>
    </edge>
    <edge id=":B4_6" function="internal">
        <lane id=":B4_6_0" index="0" speed="6.60" length="7.09" shape="362.20,481.23 362.54,479.39 362.32,477.73 361.53,476.26 360.16,474.97"/>
    </edge>
    <edge id=":B4_7" function="internal">
        <lane id=":B4_7_0" index="0" speed="8.13" length="11.15" shape="365.24,482.22 365.78,479.32 365.43,476.72 364.18,474.41 362.04,472.38"/>
    </edge>
    <edge id=":B4_8" function="internal">
        <lane id=":B4_8_0" index="0" speed="9.40" length="15.20" shape="365.24,482.22 366.97,478.59 369.44,476.00 372.67,474.45 376.65,473.93"/>
    </edge>
    <edge id=":B5_0" function="internal">
        <lane id=":B5_0_0" index="0" speed="6.60" length="7.09" shape="322.39,447.53 320.74,446.63 319.10,446.33 317.45,446.63 315.81,447.53"/>
    </edge>
    <edge id=":B5_1" function="internal">
        <lane id=":B5_1_0" index="0" speed="13.89" length="16.83" shape="322.39,447.53 318.22,444.34 315.67,441.69 313.93,438.45 312.20,433.50"/>
        <lane id=":B5_1_1" index="1" speed="13.89" length="16.83" shape="324.27,444.94 320.57,442.12 318.32,439.77 316.78,436.90 315.24,432.51"/>
    </edge>
    <edge id=":B5_3" function="internal">
        <lane id=":B5_3_0" index="0" speed="13.44" length="12.76" shape="321.33,430.53 322.47,433.79 323.61,435.92 325.29,437.67 328.03,439.76"/>
        <lane id=":B5_3_1" index="1" speed="13.89" length="12.76" shape="318.29,431.52 319.63,435.34 320.96,437.85 322.93,439.89 326.15,442.35"/>
    </edge>
    <edge id=":B5_5" function="internal">
        <lane id=":B5_5_0" index="0" speed="9.40" length="15.20" shape="318.29,431.52 319.02,435.47 318.54,439.02 316.84,442.18 313.93,444.94"/>
    </edge>
    <edge id=":B5_6" function="internal">
        <lane id=":B5_6_0" index="0" speed="6.60" length="7.09" shape="310.16,439.76 311.53,438.47 312.32,437.00 312.54,435.34 312.20,433.50"/>
    </edge>
    <edge id=":B5_7" function="internal">
        <lane id=":B5_7_0" index="0" speed="8.13" length="11.15" shape="312.04,442.35 314.18,440.32 315.43,438.01 315.78,435.40 315.24,432.51"/>
    </edge>
    <edge id=":B5_8" function="internal">
        <lane id=":B5_8_0" index="0" speed="9.40" length="15.20" shape="312.04,442.35 315.57,440.43 319.10,439.79 322.63,440.43 326.15,442.35"/>
    </edge>
    <edge id=":B6_0" function="internal">
        <lane id=":B6_0_0" index="0" speed="6.60" length="7.09" shape="297.77,389.09 296.97,387.40 295.81,386.19 294.30,385.46 292.44,385.22"/>
    </edge>
    <edge id=":B6_1" function="internal">
        <lane id=":B6_1_0" index="0" speed="13.89" length="16.83" shape="297.77,389.09 296.26,384.06 295.76,380.42 296.26,376.78 297.77,371.75"/>
        <lane id=":B6_1_1" index="1" speed="13.89" length="16.83" shape="300.81,388.10 299.48,383.65 299.03,380.42 299.48,377.20 300.81,372.74"/>
    </edge>
    <edge id=":B6_3" function="internal">
        <lane id=":B6_3_0" index="0" speed="13.44" length="12.76" shape="306.90,374.72 305.91,378.03 305.58,380.42 305.91,382.82 306.90,386.13"/>
        <lane id=":B6_3_1" index="1" speed="13.89" length="12.76" shape="303.86,373.73 302.69,377.61 302.31,380.42 302.69,383.23 303.86,387.11"/>
    </edge>
    <edge id=":B6_5" function="internal">
        <lane id=":B6_5_0" index="0" speed="9.40" length="15.20" shape="303.86,373.73 302.13,377.36 299.66,379.95 296.43,381.50 292.44,382.02"/>
    </edge>
    <edge id=":B6_6" function="internal">
        <lane id=":B6_6_0" index="0" speed="6.60" length="7.09" shape="292.44,375.62 294.30,375.38 295.81,374.66 296.97,373.45 297.77,371.75"/>
    </edge>
    <edge id=":B6_7" function="internal">
        <lane id=":B6_7_0" index="0" speed="8.13" length="11.15" shape="292.44,378.82 295.36,378.44 297.73,377.30 299.55,375.40 300.81,372.74"/>
    </edge>
    <edge id=":B6_8" function="internal">
        <lane id=":B6_8_0" index="0" speed="9.40" length="15.20" shape="292.44,378.82 296.43,379.34 299.66,380.90 302.13,383.49 303.86,387.11"/>
    </edge>
    <edge id=":B7_0" function="internal">
        <lane id=":B7_0_0" index="0" speed="13.44" length="12.76" shape="328.03,321.09 325.29,323.18 323.61,324.92 322.47,327.05 321.33,330.31"/>
        <lane id=":B7_0_1" index="1" speed="13.89" length="12.76" shape="326.15,318.50 322.93,320.95 320.96,323.00 319.63,325.50 318.29,329.32"/>
    </edge>
    <edge id=":B7_2" function="internal">
        <lane id=":B7_2_0" index="0" speed="9.40" length="15.20" shape="326.15,318.50 322.63,320.42 319.10,321.06 315.57,320.42 312.04,318.50"/>
    </edge>
    <edge id=":B7_3" function="internal">
        <lane id=":B7_3_0" index="0" speed="6.60" length="7.09" shape="315.81,313.32 317.45,314.22 319.10,314.52 320.74,314.22 322.39,313.32"/>
    </edge>
    <edge id=":B7_4" function="internal">
        <lane id=":B7_4_0" index="0" speed="8.13" length="11.15" shape="313.93,315.91 316.51,317.32 319.10,317.79 321.68,317.32 324.27,315.91"/>
    </edge>
    <edge id=":B7_5" function="internal">
        <lane id=":B7_5_0" index="0" speed="9.40" length="15.20" shape="313.93,315.91 316.84,318.67 318.54,321.82 319.02,325.38 318.29,329.32"/>
    </edge>
    <edge id=":B7_6" function="internal">
        <lane id=":B7_6_0" index="0" speed="6.60" length="7.09" shape="312.20,327.35 312.54,325.50 312.32,323.85 311.53,322.37 310.16,321.09"/>
    </edge>
    <edge id=":B7_7" function="internal">
        <lane id=":B7_7_0" index="0" speed="13.89" length="16.83" shape="312.20,327.35 313.93,322.39 315.67,319.15 318.22,316.50 322.39,313.32"/>
        <lane id=":B7_7_1" index="1" speed="13.89" length="16.83" shape="315.24,328.34 316.78,323.95 318.32,321.08 320.57,318.73 324.27,315.91"/>
    </edge>
    <edge id=":B8_0" function="internal">
        <lane id=":B8_0_0" index="0" speed="13.44" length="12.76" shape="376.65,290.12 373.20,290.20 370.82,290.62 368.65,291.68 365.81,293.64"/>
        <lane id=":B8_0_1" index="1" speed="13.89" length="12.76" shape="376.65,286.92 372.60,287.01 369.81,287.51 367.26,288.75 363.93,291.05"/>
    </edge>
    <edge id=":B8_2" function="internal">
        <lane id=":B8_2_0" index="0" speed="9.40" length="15.20" shape="376.65,286.92 372.67,286.40 369.44,284.84 366.97,282.25 365.24,278.63"/>
    </edge>
    <edge id=":B8_3" function="internal">
        <lane id=":B8_3_0" index="0" speed="6.60" length="7.09" shape="371.33,276.65 372.13,278.34 373.29,279.55 374.80,280.28 376.65,280.52"/>
    </edge>
    <edge id=":B8_4" function="internal">
        <lane id=":B8_4_0" index="0" speed="8.13" length="11.15" shape="368.29,277.64 369.55,280.30 371.37,282.20 373.73,283.34 376.65,283.72"/>
    </edge>
    <edge id=":B8_5" function="internal">
        <lane id=":B8_5_0" index="0" speed="9.40" length="15.20" shape="368.29,277.64 369.02,281.58 368.54,285.14 366.84,288.29 363.93,291.05"/>
    </edge>
    <edge id=":B8_6" function="internal">
        <lane id=":B8_6_0" index="0" speed="6.60" length="7.09" shape="360.16,285.88 361.53,284.59 362.32,283.11 362.54,281.46 362.20,279.61"/>
    </edge>
    <edge id=":B8_7" function="internal">
        <lane id=":B8_7_0" index="0" speed="13.89" length="16.83" shape="360.16,285.88 364.48,282.89 367.79,281.29 371.41,280.64 376.65,280.52"/>
        <lane id=":B8_7_1" index="1" speed="13.89" length="16.83" shape="362.04,288.46 365.87,285.82 368.80,284.40 372.01,283.82 376.65,283.72"/>
    </edge>
    <edge id=":B9_0" function="internal">
        <lane id=":B9_0_0" index="0" speed="13.44" length="12.76" shape="434.19,293.64 431.35,291.68 429.18,290.62 426.80,290.20 423.35,290.12"/>
        <lane id=":B9_0_1" index="1" speed="13.89" length="12.76" shape="436.07,291.05 432.74,288.75 430.19,287.51 427.40,287.01 423.35,286.92"/>
    </edge>
    <edge id=":B9_2" function="internal">
        <lane id=":B9_2_0" index="0" speed="9.40" length="15.20" shape="436.07,291.05 433.16,288.29 431.46,285.14 430.98,281.58 431.71,277.64"/>
    </edge>
    <edge id=":B9_3" function="internal">
        <lane id=":B9_3_0" index="0" speed="6.60" length="7.09" shape="437.80,279.61 437.46,281.46 437.68,283.11 438.47,284.59 439.84,285.88"/>
    </edge>
    <edge id=":B9_4" function="internal">
        <lane id=":B9_4_0" index="0" speed="8.13" length="11.15" shape="434.76,278.63 434.22,281.52 434.57,284.13 435.82,286.44 437.96,288.46"/>
    </edge>
    <edge id=":B9_5" function="internal">
        <lane id=":B9_5_0" index="0" speed="9.40" length="15.20" shape="434.76,278.63 433.03,282.25 430.56,284.84 427.33,286.40 423.35,286.92"/>
    </edge>
    <edge id=":B9_6" function="internal">
        <lane id=":B9_6_0" index="0" speed="6.60" length="7.09" shape="423.35,280.52 425.20,280.28 426.71,279.55 427.87,278.34 428.67,276.65"/>
    </edge>
    <edge id=":B9_7" function="internal">
        <lane id=":B9_7_0" index="0" speed="13.89" length="16.83" shape="423.35,280.52 428.59,280.64 432.21,281.29 435.52,282.89 439.84,285.88"/>
        <lane id=":B9_7_1" index="1" speed="13.89" length="16.83" shape="423.35,283.72 427.99,283.82 431.20,284.40 434.13,285.82 437.96,288.46"/>
    </edge>
    <edge id=":C1_0" function="internal">
        <lane id=":C1_0_0" index="0" speed="8.65" length="12.75" shape="608.65,385.22 606.21,385.78 604.06,387.44 602.19,390.21 600.61,394.09"/>
    </edge>
    <edge id=":C1_1" function="internal">
        <lane id=":C1_1_0" index="0" speed="13.89" length="21.46" shape="608.65,385.22 587.19,385.22"/>
        <lane id=":C1_1_1" index="1" speed="13.89" length="21.46" shape="608.65,382.02 587.19,382.02"/>
    </edge>
    <edge id=":C1_3" function="internal">
        <lane id=":C1_3_0" index="0" speed="10.93" length="20.81" shape="608.65,382.02 604.09,381.19 600.21,378.70 597.02,374.55 594.52,368.74"/>
    </edge>
    <edge id=":C1_4" function="internal">
        <lane id=":C1_4_0" index="0" speed="8.65" length="12.75" shape="600.61,366.76 602.19,370.64 604.06,373.41 606.21,375.07 608.65,375.62"/>
    </edge>
    <edge id=":C1_5" function="internal">
        <lane id=":C1_5_0" index="0" speed="13.89" length="26.83" shape="600.61,366.76 602.35,373.70 602.92,380.42 602.35,387.14 600.61,394.09"/>
        <lane id=":C1_5_1" index="1" speed="13.89" length="26.83" shape="597.56,367.75 599.30,374.38 599.88,380.42 599.30,386.46 597.56,393.10"/>
    </edge>
    <edge id=":C1_7" function="internal">
        <lane id=":C1_7_0" index="0" speed="8.89" length="22.01" shape="597.56,367.75 598.65,373.99 597.29,378.45 593.47,381.13 587.19,382.02"/>
    </edge>
    <edge id=":C1_8" function="internal">
        <lane id=":C1_8_0" index="0" speed="5.93" length="9.09" shape="587.19,375.62 589.78,375.25 591.36,374.15 591.93,372.30 591.48,369.72"/>
    </edge>
    <edge id=":C1_9" function="internal">
        <lane id=":C1_9_0" index="0" speed="13.89" length="21.46" shape="587.19,375.62 608.65,375.62"/>
        <lane id=":C1_9_1" index="1" speed="13.89" length="21.46" shape="587.19,378.82 608.65,378.82"/>
    </edge>
    <edge id=":C1_11" function="internal">
        <lane id=":C1_11_0" index="0" speed="8.89" length="22.01" shape="587.19,378.82 593.47,379.71 597.29,382.39 598.65,386.85 597.56,393.10"/>
    </edge>
    <edge id=":C1_12" function="internal">
        <lane id=":C1_12_0" index="0" speed="5.93" length="9.09" shape="591.48,391.12 591.93,388.54 591.36,386.70 589.78,385.59 587.19,385.22"/>
    </edge>
    <edge id=":C1_13" function="internal">
        <lane id=":C1_13_0" index="0" speed="13.89" length="22.93" shape="591.48,391.12 593.21,385.10 593.79,380.42 593.21,375.74 591.48,369.72"/>
        <lane id=":C1_13_1" index="1" speed="13.89" length="22.93" shape="594.52,392.11 596.26,385.78 596.84,380.42 596.26,375.06 594.52,368.74"/>
    </edge>
    <edge id=":C1_15" function="internal">
        <lane id=":C1_15_0" index="0" speed="10.93" length="20.81" shape="594.52,392.11 597.02,386.30 600.21,382.14 604.09,379.65 608.65,378.82"/>
    </edge>
    <edge id=":C10_0" function="internal">
        <lane id=":C10_0_0" index="0" speed="5.93" length="9.09" shape="561.20,276.53 560.04,274.18 558.50,273.02 556.58,273.05 554.26,274.28"/>
    </edge>
    <edge id=":C10_1" function="internal">
        <lane id=":C10_1_0" index="0" speed="13.89" length="22.93" shape="561.20,276.53 559.07,270.64 556.78,266.51 553.56,263.07 548.62,259.22"/>
        <lane id=":C10_1_1" index="1" speed="13.89" length="22.93" shape="564.24,275.54 561.93,269.40 559.25,264.72 555.63,260.73 550.50,256.63"/>
    </edge>
    <edge id=":C10_3" function="internal">
        <lane id=":C10_3_0" index="0" speed="10.93" length="20.81" shape="564.24,275.54 562.85,269.37 562.99,264.13 564.66,259.84 567.86,256.49"/>
    </edge>
    <edge id=":C10_4" function="internal">
        <lane id=":C10_4_0" index="0" speed="8.65" length="12.75" shape="571.62,261.66 569.98,263.55 569.21,266.16 569.33,269.50 570.33,273.56"/>
    </edge>
    <edge id=":C10_5" function="internal">
        <lane id=":C10_5_0" index="0" speed="13.89" length="21.46" shape="571.62,261.66 554.26,274.28"/>
        <lane id=":C10_5_1" index="1" speed="13.89" length="21.46" shape="569.74,259.08 552.38,271.69"/>
    </edge>
    <edge id=":C10_7" function="internal">
        <lane id=":C10_7_0" index="0" speed="10.93" length="20.81" shape="569.74,259.08 565.56,261.09 560.96,261.35 555.94,259.86 550.50,256.63"/>
    </edge>
    <edge id=":C10_8" function="internal">
        <lane id=":C10_8_0" index="0" speed="8.65" length="12.75" shape="554.26,251.45 557.82,253.66 560.96,254.80 563.68,254.88 565.98,253.90"/>
    </edge>
    <edge id=":C10_9" function="internal">
        <lane id=":C10_9_0" index="0" speed="13.89" length="26.83" shape="554.26,251.45 559.75,256.05 564.17,261.15 567.65,266.92 570.33,273.56"/>
        <lane id=":C10_9_1" index="1" speed="13.89" length="26.83" shape="552.38,254.04 557.69,258.39 561.71,262.94 564.79,268.16 567.28,274.55"/>
    </edge>
    <edge id=":C10_11" function="internal">
        <lane id=":C10_11_0" index="0" speed="8.89" length="22.01" shape="552.38,254.04 556.94,258.45 558.45,262.87 556.94,267.28 552.38,271.69"/>
    </edge>
    <edge id=":C10_12" function="internal">
        <lane id=":C10_12_0" index="0" speed="5.93" length="9.09" shape="548.62,266.51 550.50,264.69 551.13,262.87 550.50,261.04 548.62,259.22"/>
    </edge>
    <edge id=":C10_13" function="internal">
        <lane id=":C10_13_0" index="0" speed="13.89" length="21.46" shape="548.62,266.51 565.98,253.90"/>
        <lane id=":C10_13_1" index="1" speed="13.89" length="21.46" shape="550.50,269.10 567.86,256.49"/>
    </edge>
    <edge id=":C10_15" function="internal">
        <lane id=":C10_15_0" index="0" speed="8.89" length="22.01" shape="550.50,269.10 556.10,266.13 560.77,266.05 564.49,268.86 567.28,274.55"/>
    </edge>
    <edge id=":C2_0" function="internal">
        <lane id=":C2_0_0" index="0" speed="8.65" length="12.75" shape="565.98,506.95 563.68,505.96 560.96,506.04 557.82,507.18 554.26,509.39"/>
    </edge>
    <edge id=":C2_1" function="internal">
        <lane id=":C2_1_0" index="0" speed="13.89" length="21.46" shape="565.98,506.95 548.62,494.33"/>
        <lane id=":C2_1_1" index="1" speed="13.89" length="21.46" shape="567.86,504.36 550.50,491.75"/>
    </edge>
    <edge id=":C2_3" function="internal">
        <lane id=":C2_3_0" index="0" speed="10.93" length="20.81" shape="567.86,504.36 564.66,501.00 562.99,496.71 562.85,491.48 564.24,485.30"/>
    </edge>
    <edge id=":C2_4" function="internal">
        <lane id=":C2_4_0" index="0" speed="8.65" length="12.75" shape="570.33,487.28 569.33,491.35 569.21,494.69 569.98,497.30 571.62,499.18"/>
    </edge>
    <edge id=":C2_5" function="internal">
        <lane id=":C2_5_0" index="0" speed="13.89" length="26.83" shape="570.33,487.28 567.65,493.92 564.17,499.70 559.75,504.79 554.26,509.39"/>
        <lane id=":C2_5_1" index="1" speed="13.89" length="26.83" shape="567.28,486.29 564.79,492.68 561.71,497.91 557.69,502.46 552.38,506.80"/>
    </edge>
    <edge id=":C2_7" function="internal">
        <lane id=":C2_7_0" index="0" speed="8.89" length="22.01" shape="567.28,486.29 564.49,491.99 560.77,494.79 556.10,494.71 550.50,491.75"/>
    </edge>
    <edge id=":C2_8" function="internal">
        <lane id=":C2_8_0" index="0" speed="5.93" length="9.09" shape="554.26,486.57 556.58,487.79 558.50,487.83 560.04,486.67 561.20,484.31"/>
    </edge>
    <edge id=":C2_9" function="internal">
        <lane id=":C2_9_0" index="0" speed="13.89" length="21.46" shape="554.26,486.57 571.62,499.18"/>
        <lane id=":C2_9_1" index="1" speed="13.89" length="21.46" shape="552.38,489.16 569.74,501.77"/>
    </edge>
    <edge id=":C2_11" function="internal">
        <lane id=":C2_11_0" index="0" speed="8.89" length="22.01" shape="552.38,489.16 556.94,493.57 558.45,497.98 556.94,502.39 552.38,506.80"/>
    </edge>
    <edge id=":C2_12" function="internal">
        <lane id=":C2_12_0" index="0" speed="5.93" length="9.09" shape="548.62,501.63 550.50,499.80 551.13,497.98 550.50,496.16 548.62,494.33"/>
    </edge>
    <edge id=":C2_13" function="internal">
        <lane id=":C2_13_0" index="0" speed="13.89" length="22.93" shape="548.62,501.63 553.56,497.78 556.78,494.33 559.07,490.20 561.20,484.31"/>
        <lane id=":C2_13_1" index="1" speed="13.89" length="22.93" shape="550.50,504.21 555.63,500.12 559.25,496.12 561.93,491.44 564.24,485.30"/>
    </edge>
    <edge id=":C2_15" function="internal">
        <lane id=":C2_15_0" index="0" speed="10.93" length="20.81" shape="550.50,504.21 555.94,500.98 560.96,499.50 565.56,499.76 569.74,501.77"/>
    </edge>
    <edge id=":C3_0" function="internal">
        <lane id=":C3_0_0" index="0" speed="8.65" length="12.75" shape="459.91,580.34 458.63,578.20 456.38,576.66 453.17,575.74 448.99,575.43"/>
    </edge>
    <edge id=":C3_1" function="internal">
        <lane id=":C3_1_0" index="0" speed="13.89" length="21.46" shape="459.91,580.34 453.28,559.94"/>
        <lane id=":C3_1_1" index="1" speed="13.89" length="21.46" shape="462.95,579.35 456.32,558.95"/>
    </edge>
    <edge id=":C3_3" function="internal">
        <lane id=":C3_3_0" index="0" speed="10.93" length="20.81" shape="462.95,579.35 462.33,574.76 463.51,570.30 466.47,565.99 471.23,561.81"/>
    </edge>
    <edge id=":C3_4" function="internal">
        <lane id=":C3_4_0" index="0" speed="8.65" length="12.75" shape="474.99,566.99 471.79,569.69 469.73,572.33 468.81,574.89 469.04,577.38"/>
    </edge>
    <edge id=":C3_5" function="internal">
        <lane id=":C3_5_0" index="0" speed="13.89" length="26.83" shape="474.99,566.99 468.92,570.79 462.71,573.42 456.14,574.94 448.99,575.43"/>
        <lane id=":C3_5_1" index="1" speed="13.89" length="26.83" shape="473.11,564.40 467.33,568.10 461.77,570.52 455.84,571.84 448.99,572.23"/>
    </edge>
    <edge id=":C3_7" function="internal">
        <lane id=":C3_7_0" index="0" speed="8.89" length="22.01" shape="473.11,564.40 467.50,567.37 462.84,567.45 459.11,564.64 456.32,558.95"/>
    </edge>
    <edge id=":C3_8" function="internal">
        <lane id=":C3_8_0" index="0" speed="5.93" length="9.09" shape="462.41,556.97 463.56,559.32 465.10,560.48 467.03,560.45 469.34,559.22"/>
    </edge>
    <edge id=":C3_9" function="internal">
        <lane id=":C3_9_0" index="0" speed="13.89" length="21.46" shape="462.41,556.97 469.04,577.38"/>
        <lane id=":C3_9_1" index="1" speed="13.89" length="21.46" shape="459.37,557.96 466.00,578.37"/>
    </edge>
    <edge id=":C3_11" function="internal">
        <lane id=":C3_11_0" index="0" speed="8.89" length="22.01" shape="459.37,557.96 460.46,564.20 459.09,568.66 455.27,571.34 448.99,572.23"/>
    </edge>
    <edge id=":C3_12" function="internal">
        <lane id=":C3_12_0" index="0" speed="5.93" length="9.09" shape="448.99,565.83 451.59,565.47 453.17,564.36 453.73,562.52 453.28,559.94"/>
    </edge>
    <edge id=":C3_13" function="internal">
        <lane id=":C3_13_0" index="0" speed="13.89" length="22.93" shape="448.99,565.83 455.26,565.63 459.89,564.73 464.16,562.73 469.34,559.22"/>
        <lane id=":C3_13_1" index="1" speed="13.89" length="22.93" shape="448.99,569.03 455.55,568.73 460.83,567.63 465.75,565.42 471.23,561.81"/>
    </edge>
    <edge id=":C3_15" function="internal">
        <lane id=":C3_15_0" index="0" speed="10.93" length="20.81" shape="448.99,569.03 455.30,569.62 460.23,571.37 463.80,574.28 466.00,578.37"/>
    </edge>
    <edge id=":C4_0" function="internal">
        <lane id=":C4_0_0" index="0" speed="8.65" length="12.75" shape="351.01,575.43 346.83,575.74 343.62,576.66 341.37,578.20 340.09,580.34"/>
    </edge>
    <edge id=":C4_1" function="internal">
        <lane id=":C4_1_0" index="0" speed="13.89" length="26.83" shape="351.01,575.43 343.86,574.94 337.29,573.42 331.08,570.79 325.01,566.99"/>
        <lane id=":C4_1_1" index="1" speed="13.89" length="26.83" shape="351.01,572.23 344.16,571.84 338.23,570.52 332.67,568.10 326.89,564.40"/>
    </edge>
    <edge id=":C4_3" function="internal">