<?xml version="1.0" encoding="UTF-8"?>

<!-- generated on Fri Feb 26 16:12:01 2021 by Eclipse SUMO duarouter Version 1.8.0
<configuration xmlns:xsi="http://www.w3.org/2001/XMLSchema-instance" xsi:noNamespaceSchemaLocation="http://sumo.dlr.de/xsd/duarouterConfiguration.xsd">

    <input>
        <net-file value="CottbusNoLeftturns.net.xml"/>
        <route-files value="trips.trips.xml"/>
    </input>

    <output>
        <output-file value="routesNoLeft.rou.xml"/>
        <alternatives-output value="routesNoLeft.rou.alt.xml"/>
    </output>

</configuration>
-->

<routes xmlns:xsi="http://www.w3.org/2001/XMLSchema-instance" xsi:noNamespaceSchemaLocation="http://sumo.dlr.de/xsd/routes_file.xsd">
    <vehicle id="0" depart="0.00">
        <route edges="225104390 225104388 131240728 131240732 131240725 131240722 224459756 224459753 117681077 224459754 127103806 127103054 131240724 131240733 131240723 131240737 225104396 225104394 131240742 131240743 177647275 177068559 131251251 178071548 809230632 131248741 126895098 246271163 117386618 131251249 131251250 226373240 179148020 329695138-n 128549141-n 128564980-n 863043529-n 863043530-n 863043528-n 226373245-n 117348077-n 44883720 815465067-n 225231888-n 128564983-n 815465068 117875386 815465069 225231885 225231886 225231887 225231884#0 225231884-n#0 225231887-n 225231886-n 225231885-n 815465069-n 117875386-n 815465068-n 128564983 225231888 815465067 44883720-n 117348077"/>
    </vehicle>
    <vehicle id="1" depart="0.10">
        <route edges="130740907 840190449 224621090 224621095 314088765 840190447 840190447-n 314088765-n 224621095-n 224621090-n 840190449-n 130740907-n 807180615-n 127095854-n 209064515-n 209064516-n 129894048-n 129894050 129894052 410374346 410374347 807180616 209064512 129894049"/>
    </vehicle>
    <vehicle id="2" depart="0.20">
        <route edges="373337176 814626372 210647592 225232506 210647591 179219221 128572950 128572951 225101774 45769409 225101771 225101769 225102559 225102560 225102561 246621178 246621177 128572903#4 128572903#0 897114841 897114840 897221428 897114839 128572896 141561211-n 129138633 817790091 129138634 817790090 129144756 225079482 129138637 129138636 225079481 225079641 225079639-n 225233696-n 178071518-n 326165455-n 225233694-n 225233695-n"/>
    </vehicle>
    <vehicle id="3" depart="0.30">
        <route edges="815465068 117875386 815465069 225231885 225231886 225231887 225231884#0 389380355 390466919 128572885 839399637-n 225231511-n 126838099-n 130095967-n 47570870-n 372975572-n 225230516-n 117348068-n 127091450 117348066 807987489 130242016 252763442 864280704 252763440 252763438 864280701 864280700 209064532 149550174 864280679 224621083 224621082 209064527 209064526 209064519 171917598-n 129894051-n 129894049-n 209064512-n 807180616-n 410374347-n 410374346-n 129894052-n 129894050-n 129894048 209064516 209064515 127095854 807180615 807180615-n 127095854-n"/>
    </vehicle>
    <vehicle id="4" depart="0.40">
        <route edges="209044703 209044718 146867758 209044704 209044711 209044709 127686529-n 117869065-n 252807698-n 209044723-n 209044721-n 252807697-n 225103898-n 209044720-n 275974867-n 128937567-n 395000738-n 179148030 106056809 817790091 129138634 817790090 129144756 225079482 129138637 129138636 225079481 225079641 225079640 779677958 225079642 225079831 225079830 156635494 117869090 224621098 31257853 129894089 129894129 840190447-n 314088765-n 224621095-n 224621090-n 840190449-n 130740907-n 224621092-n 810404978-n 808682047-n 225081533-n 225081532-n 225081534-n 805924882-n 805924883-n 178082561-n 225081531-n 130740906-n 806718082 117679060"/>
    </vehicle>
    <vehicle id="5" depart="0.50">
        <route edges="129709055 48572043 131251255 178016665 48572085 224481376 126893694 131251252 191501870 809208200 126895096 131248758 807562119 314173972 48571937 130268205 130268210 48571770 48571793 117732533 130268203 48891724 117725295 131245574 130242020 48893555 130242021 130268207 130268209 149550174 864280679 224621083 224621082 209064527 209064526 209064519 171917598-n 129894051-n 129894049-n 209064512-n 807180616-n 410374347-n 410374346-n 129894052-n 129894050-n 129894048 209064516 209064515 127095854 807180615 127102815 807322763 815466168 209064522 815466167 209064517 806729381 807322765 860650251 209064520 209064514 209064521 807545498-n 209064529-n 807545497 209064525"/>
    </vehicle>
    <vehicle id="6" depart="0.60">
        <route edges="117348077-n 44883720 815465067-n 225231888-n 128564983-n 815465068 117875386 815465069 225231885 225231886 225231887 225231884#0 389380355 390466919 128572885 839399637-n 225231511-n 126838099-n 130095967-n 47570870-n 372975572-n 225230516-n 117348068-n 127091445 129909717 844743054 844743056 813228450 813228470 117298003 117348062 106056808 121119647 129258301 314109638 815655356 314109640 314109639 117869059-n 225104063-n 146867755-n 129138633-n"/>
    </vehicle>
    <vehicle id="7" depart="0.70">
        <route edges="225231884#0 389380355 390466919 128572885 839399637-n 225231511-n 126838099-n 130095967-n 47570870-n 372975572-n 225230516-n 117348068-n 127091450 117348066 807987489 130242016 252763442 864280704 252763440 252763438 864280701 864280700 209064532 149550174 864280679 224621083 224621082 209064527 209064526 209064519 171917598-n 129894051-n 129894049-n 209064512-n 807180616-n 410374347-n 410374346-n 129894052-n 129894050-n 129894048 209064516 209064515 127095854 807180615 127102815 807322763 815466168 209064522 815466167 209064517 806729381 807322765 860650251 209064520 209064514 209064521 807545498-n 209064529-n 807545497 209064525 209064513 807545496 807318604 179220636 127102813 209064511 815467762 807318603 127103801 179887853 198369692 224462298 179887849 179887846 205609090 224463133 224463134"/>
    </vehicle>
    <vehicle id="8" depart="0.80">
        <route edges="129894048-n 129894050 129894052 410374346 410374347 807180616 209064512 129894049 129894051 171917598 117721442 117721443 117721441 209064518 209064528 209064524 209064523 179220655-n 149550174 864280679 224621083 224621082 209064527 209064526 209064519 171917598-n 129894051-n 129894049-n 209064512-n 807180616-n 410374347-n 410374346-n 129894052-n 129894050-n 129894048 209064516 209064515 127095854 807180615 130740907 840190449 224621090 224621095 314088765 840190447 129894129-n 129894089-n 31257853-n 224621098-n 117869090-n 156635494-n 225079830-n 225079831-n 225079642-n 779677958-n 225079640-n 225079640 779677958 225079642 225079831"/>
    </vehicle>
    <vehicle id="9" depart="0.90">
        <route edges="805924882-n 805924883-n 178082561-n 225081531-n 130740906-n 806718082 117679060 127103808 224459753 198369697 127103048 127103051 127103053 127103047 807549601 127103052 807549602 127102817 224460907#0 224460907#1 179887853 198369692 224462298 179887849 179887846 205609090 224463133 224463134 76355527 117127486"/>
    </vehicle>
    <vehicle id="10" depart="1.00">
        <route edges="779677958-n 225079640-n 225079641-n 225079481-n 129138636-n 129138637-n 225079482-n 129144756-n 817790090-n 129138634-n 817790091-n 146867755 225104063 117869059 129258300 252807692"/>
    </vehicle>
    <vehicle id="11" depart="1.10">
        <route edges="171917598-n 129894051-n 129894049-n 209064512-n 807180616-n 410374347-n 410374346-n 129894052-n 129894050-n 129894048 209064516 209064515 127095854 807180615 130740907 840190449 224621090 224621095 314088765 840190447 129894129-n 129894089-n 31257853-n 224621098-n 117869090-n 156635494-n 225079830-n 225079831-n 225079642-n 779677958-n 225079640-n 225079641-n 225079481-n 129138636-n 129138637-n 225079482-n 129144756-n 817790090-n 129138634-n 817790091-n 106056809-n 129144732 395000738 128937567 275974867 209044720 225103898 252807697 209044721 209044723 252807698 117869065 127686529 209044706 209044710 209044693 128572893"/>
    </vehicle>
    <vehicle id="12" depart="1.20">
        <route edges="846083189 129894070 846083183 846083188 129894129-n 129894089-n 31257853-n 224621098-n 117869090-n 156635494-n 225079830-n 225079831-n 225079642-n 779677958-n 225079640-n 225079640 779677958 225079642 225079831 225079830 156635494"/>
    </vehicle>
    <vehicle id="13" depart="1.30">
        <route edges="127102815 807322763 815466168 209064522 815466167 209064517 806729381 807322765 860650251 209064520 209064514 209064521 807545498-n 209064529-n 807545497 209064525 209064513 807545496 807318604 179220636 127102813 209064511 815467762 807318603 127103803 807549605 127103056 807549603 127103046"/>
    </vehicle>
    <vehicle id="14" depart="1.40">
        <route edges="807545497 209064525 209064513 807545496 807318604 179220636 127102813 209064511 815467762 807318603 127103801 179887853 198369685 209064510 807318602 209064509 179220636-n 807318604-n 807545496-n 209064513-n 209064525-n 807545497-n 209064529 807545498 209064521-n 209064514-n 209064520-n 860650251-n 807322765-n 806729381-n 209064517-n 815466167-n 209064522-n 815466168-n 807322763-n 127102815-n 224621092-n 810404978-n 808682047-n 225081533-n 225081532-n 225081534-n 805924882-n 805924883-n 178082561-n 225081531-n"/>
    </vehicle>
    <vehicle id="15" depart="1.50">
        <route edges="805924882 225081534 225081532 225081533 808682047 810404978 224621092 807180615-n 127095854-n 209064515-n 209064516-n 129894048-n 129894050 129894052 410374346 410374347 807180616 209064512 129894049 129894051 171917598 117721442 117721443 117721441 209064518 209064528 209064524 209064523 130268141 106055498 209064531 127012583 130242012 127012581 127012582 127012584 807987491 807987489-n 117348066-n 127091450-n 117348068 46983848 47360659 844743062 47360283 47360486 117298009 128549137 128549141 329695138 329695138-n"/>
    </vehicle>
    <vehicle id="16" depart="1.60">
        <route edges="224460907#1 179887853 198369685 209064510 807318602 209064509 179220636-n 807318604-n 807545496-n 209064513-n 209064525-n 807545497-n 209064529 807545498 130803046 225081530 846083189 129894070 846083183 846083188 129894129-n 129894089-n 31257853-n 224621098-n 117869090-n 156635494-n 225079830-n 225079831-n 225079642-n 779677958-n 225079640-n 225079641-n 225079481-n 129138636-n 129138637-n 225079482-n 129144756-n 817790090-n 129138634-n 817790091-n 146867755 225104063 117869059 129258300 252807692 117869061 314109637 117869058 178016660 117298004 314192732 863865318 813228469 863865317 844743055 863865283 844743053 178016654 863865274 863865273"/>
    </vehicle>
    <vehicle id="17" depart="1.70">
        <route edges="179887846 205609090 224463133 224463134 76355527 117127486 179890001 204970633 204970634 204970640 76355533 209028434 904711771 209028420 224462299 224462300 224460904 224460906 209064510 807318602 209064509 179220636-n 807318604-n 807545496-n 209064513-n 209064525-n 807545497-n 209064529 807545498 209064521-n 209064514-n 209064520-n 860650251-n 807322765-n 806729381-n 209064517-n 815466167-n 209064522-n 815466168-n 807322763-n 127102815-n 807180615-n 127095854-n 209064515-n 209064516-n 129894048-n 129894050 129894052 410374346 410374347 807180616 209064512 129894049 129894051 171917598 117721442 117721443 117721441 209064518 209064528 209064524 209064523 179220655-n 130268209-n 130268207-n 130242021-n 48893555-n 130242020-n 131245574-n 117725295-n 48891724-n 130268203-n 117732533-n 48571793-n 48571770-n 130268210-n 130268205-n 48571937-n 809230634 131248757 224481377 224481378"/>
    </vehicle>
    <vehicle id="18" depart="1.80">
        <route edges="807318604 179220636 127102813 209064511 815467762 807318603 127103801 179887853 198369685 209064510 807318602 209064509 179220636-n 807318604-n 807545496-n 209064513-n 209064525-n 807545497-n 209064529 807545498 130803046 225081530 846083189 129894070 846083183 846083188 129894129-n 129894089-n 31257853-n 224621098-n 117869090-n 156635494-n 225079830-n 225079831-n 225079642-n 779677958-n 225079640-n 225079641-n 225079481-n 129138636-n 129138637-n 225079482-n 129144756-n 817790090-n 129138634-n 817790091-n 129138633-n 141561211 128572896-n 897114839-n 897221428-n 897114840-n 897114841-n 128572903#1 128572903#2 128572903#3 246621177-n 246621179 225102561-n 225102560-n 225102559-n 225101769-n 225101771-n"/>
    </vehicle>
    <vehicle id="19" depart="1.90">
        <route edges="807987489-n 117348066-n 127091450-n 127091445 129909717 844743054 844743056 813228450 813228470 117298003 117348062 106056808 121119647 129258301 314109638 815655356 314109640 314109639 117869059-n 225104063-n 146867755-n 817790091 129138634 817790090 129144756 225079482 129138637 129138636 225079481 225079641 225079640"/>
    </vehicle>
    <vehicle id="20" depart="2.00">
        <route edges="275974867 209044720 225103898 252807697 209044721 209044723 209044723-n 209044721-n 252807697-n 225103898-n 209044720-n 275974867-n 128937567-n 395000738-n 179148030 106056809 146867755 225104063 117869059 129258300 252807692 117869061 314109637 117869058 178016660 117298004 314192732 863865318 813228469 863865317 844743055 863865283 844743053 178016654 863865274 863865273 863865264 863865265 844743057 117348068-n 127091445 129909717 844743054 844743056 813228450 813228470 117298003 117348062 106056808 121119647 129258301 314109638 815655356 314109640 314109639 117869059-n"/>
    </vehicle>
    <vehicle id="21" depart="2.10">
        <route edges="129894051 171917598 117721442 117721443 117721441 209064518 209064528 209064524 209064523 179220655-n 130268209-n 130268207-n 130242021-n 48893555-n 130242020-n 131245574-n 117725295-n 48891724-n 130268203-n 117732533-n 48571793-n 48571770-n 130268210-n 130268205-n 48571937-n 809230634 131248757 224481377 224481378 131251254 126895097 131251252 191501870 809208200 49807402 224481375 127103057 131254224 131240739 131240730"/>
    </vehicle>
    <vehicle id="22" depart="2.20">
        <route edges="127012584 807987491 807987489-n 117348066-n 127091450-n 127091450 117348066 807987489 130242016 252763442 864280704 252763440 252763438 864280701 864280700 209064532 149550174 864280679 224621083 224621082 209064527 209064526 209064519 171917598-n 129894051-n 129894049-n 209064512-n 807180616-n 410374347-n 410374346-n 129894052-n"/>
    </vehicle>
    <vehicle id="23" depart="2.30">
        <route edges="127103048 127103051 127103053 127103047 807549601 127103052 807549602 127102817 224460907#0 224460907#1 179887853 198369685 209064510 807318602 209064509 179220636-n 807318604-n 807545496-n 209064513-n 209064525-n 807545497-n 209064529 807545498 130803046"/>
    </vehicle>
    <vehicle id="24" depart="2.40">
        <route edges="225104063-n 146867755-n 817790091 129138634 817790090 129144756 225079482 129138637 129138636 225079481 225079641 225079640 779677958 225079642 225079831 225079830 156635494 117869090 224621098 31257853 129894089 129894129 840190447-n 314088765-n 224621095-n 224621090-n 840190449-n 130740907-n 224621092-n 810404978-n 808682047-n 225081533-n 225081532-n 225081534-n 805924882-n 805924883-n 178082561-n"/>
    </vehicle>
    <vehicle id="25" depart="2.50">
        <route edges="179219221-n 179219221 128572950 128572951 225101774 45769409 225101771 225101769 225102559 225102560 225102561 246621178 246621177 128572903#4 128572903#0 897114841 897114840 897221428 897114839 128572896 141561211-n 129138633 106056809-n 129144732"/>
    </vehicle>
    <vehicle id="26" depart="2.60">
        <route edges="130268209-n 130268207-n 130242021-n 48893555-n 130242020-n 131245574-n 117725295-n 48891724-n 130268203-n 117732533-n 48571793-n 48571770-n 130268210-n 130268205-n 48571937-n 809230634 131248757 224481377 224481378 131248741 126895098 246271163 117386618 131251249 131251250 226373240 179148020 117298002 844743061 844743060 844743059"/>
    </vehicle>
    <vehicle id="27" depart="2.70">
        <route edges="225231511-n 126838099-n 130095967-n 47570870-n 372975572-n 225230516-n 117348068-n 127091450 117348066 807987489 130242016 252763442 864280704 252763440 252763438 864280701 864280700 209064532 149550174 864280679 224621083 224621082 209064527 209064526 209064519 171917598-n 129894051-n 129894049-n 209064512-n 807180616-n 410374347-n 410374346-n 129894052-n 129894050-n 129894048 209064516 209064515 127095854 807180615 224621092-n 810404978-n 808682047-n 225081533-n"/>
    </vehicle>
    <vehicle id="28" depart="2.80">
        <route edges="128572916#0 128572916#1 128572916#2 374714433-n 128572895-n 128572903#2 128572903#3 246621177-n 246621179 225102561-n 225102560-n 225102559-n 225101769-n 225101771-n 45769409-n 225101774-n 128572951-n 128572950-n 179219221-n 210647591-n 225232506-n 210647592-n 814626372-n 373337176-n 815463635-n 815463636-n 225231884-n#1 225231884-n#0 225231887-n 225231886-n 225231885-n 815465069-n 117875386-n 815465068-n 128564983 225231888 815465067 44883720-n 117348077 226373245 863043528 863043530 863043529 128564980 128549141 329695138"/>
    </vehicle>
    <vehicle id="29" depart="2.90">
        <route edges="128572903#0 897114841 897114840 897221428 897114839 128572896 141561211-n 129138633 817790091 129138634 817790090 129144756 225079482 129138637 129138636 225079481 225079641 225079640 779677958 225079642 225079831 225079830 156635494 117869090 224621098 31257853 129894089 129894129 846083175 846083174 846083173 178082551 225081530-n 130803046-n 807545498-n 209064529-n 807545497 209064525 209064513 807545496 807318604 179220636 127102813 209064511 815467762 807318603 127103801 179887853 198369692 224462298 179887849"/>
    </vehicle>
    <vehicle id="30" depart="3.00">
        <route edges="897114840 897221428 897114839 128572896 141561211-n 129138633 146867755 225104063 117869059 129258300 252807692 117869061 314109637 117869058 178016660 117298004 314192732 863865318 813228469 863865317 844743055 863865283 844743053 178016654 863865274 863865273 863865264 863865265 844743057 117348068-n 127091450 117348066 807987489 130242016 252763442 864280704 252763440 252763438 864280701 864280700 209064532 130268209-n 130268207-n 130242021-n 48893555-n 130242020-n 131245574-n 117725295-n 48891724-n 130268203-n 117732533-n 48571793-n 48571770-n 130268210-n 130268205-n 48571937-n 809230634 131248757 224481377 224481378 131251254 126895097 131251252 191501870 809208200 49807402 224481375 127103057 131254224 131240739 131240730 225104390"/>
    </vehicle>
    <vehicle id="31" depart="3.10">
        <route edges="224621090-n 840190449-n 130740907-n 807180615-n 127095854-n 209064515-n 209064516-n 129894048-n 129894050 129894052 410374346 410374347 807180616 209064512 129894049 129894051 171917598 117721442 117721443 117721441 209064518 209064528 209064524 209064523 179220655-n 130268209-n 130268207-n 130242021-n 48893555-n 130242020-n 131245574-n 117725295-n 48891724-n 130268203-n 117732533-n 48571793-n 48571770-n 130268210-n 130268205-n 48571937-n 809230634 131248757 224481377 224481378 131248741 126895098 246271163"/>
    </vehicle>
    <vehicle id="32" depart="3.20">
        <route edges="807467479-n 845325508-n 127100782-n 845325509-n 845325509 127100782 845325508 807467479 807325644 816184928 146414772 225081528 225081529 209064521-n 209064514-n 209064520-n 860650251-n 807322765-n 806729381-n 209064517-n 815466167-n 209064522-n 815466168-n 807322763-n 127102815-n 807180615-n 127095854-n 209064515-n 209064516-n 129894048-n 129894050 129894052 410374346 410374347 807180616 209064512 129894049 129894051 171917598 117721442 117721443 117721441 209064518 209064528 209064524 209064523 130268141 106055498 209064531 127012583 130242012 127012581 127012582 127012584 807987491 807987489-n 117348066-n 127091450-n 117348068 225230516 372975572 47570870 130095967 126838099 225231511 839399637 839399637-n 225231511-n 126838099-n 130095967-n 47570870-n"/>
    </vehicle>
    <vehicle id="33" depart="3.30">
        <route edges="129894051 171917598 117721442 117721443 117721441"/>
    </vehicle>
    <vehicle id="34" depart="3.40">
        <route edges="131254224 131240739 131240730 225104390 225104388 131240728 131240732 131240725 131240722 224459756 224459753 117681077 615800434 806718083 130740906 225081531 178082561 805924883 805924882 225081534 225081532 225081533 808682047 810404978 224621092 807180615-n 127095854-n 209064515-n 209064516-n 129894048-n 129894050 129894052 410374346 410374347 807180616 209064512 129894049 129894051 171917598 117721442 117721443 117721441 209064518 209064528 209064524 209064523 179220655-n 130268209-n"/>
    </vehicle>
    <vehicle id="35" depart="3.50">
        <route edges="129144756 129144756-n 817790090-n 129138634-n 817790091-n 106056809-n 129144732 395000738 128937567 275974867 209044720 225103898 252807697 209044721 209044723 845131995"/>
    </vehicle>
    <vehicle id="36" depart="3.60">
        <route edges="813228469 863865317 844743055 863865283 844743053 178016654 863865274 863865273 863865264 863865265 844743057 46983848 47360659 844743062 47360283 47360486 117298009 128549137 47360440 129709054 129709055 48572043 131251255"/>
    </vehicle>
    <vehicle id="37" depart="3.70">
        <route edges="225231885 225231886 225231887 225231884#0 389380355 390466919 128572885 839399637-n 225231511-n 126838099-n 130095967-n 47570870-n 372975572-n 225230516-n 117348068-n 127091450 117348066 807987489 130242016 252763442 864280704 252763440 252763438 864280701 864280700 209064532 149550174 864280679 224621083 224621082 209064527 209064526 209064519 171917598-n 129894051-n 129894049-n 209064512-n 807180616-n 410374347-n 410374346-n 129894052-n 129894050-n 129894048 209064516 209064515 127095854 807180615 127102815 807322763 815466168 209064522 815466167 209064517 806729381 807322765 860650251 209064520 209064514 209064521 807545498-n 209064529-n 807545497 209064525 209064513 807545496 807318604 179220636 127102813 209064511 815467762 807318603 127103801 179887853 198369692 224462298 179887849 179887846 205609090 224463133 224463134 76355527 117127486 179890001 204970633 204970634 204970640"/>
    </vehicle>
    <vehicle id="38" depart="3.80">
        <route edges="817790091-n 106056809-n 129144732 395000738 128937567 275974867 209044720 225103898 252807697 209044721 209044723"/>
    </vehicle>
    <vehicle id="39" depart="3.90">
        <route edges="130268207-n 130242021-n 48893555-n 130242020-n 131245574-n 117725295-n 48891724-n 130268203-n 117732533-n 48571793-n 48571770-n 130268210-n 130268205-n 48571937-n 48571937 130268205 130268210 48571770 48571793 117732533 130268203 48891724 117725295 131245574 130242020 48893555 130242021 130268207 130268209 179220655 130268141 106055498 209064531 127012583 130242012"/>
    </vehicle>
    <vehicle id="40" depart="4.00">
        <route edges="224621095 314088765 840190447 840190447-n 314088765-n 224621095-n 224621090-n 840190449-n 130740907-n 807180615-n 127095854-n 209064515-n 209064516-n 129894048-n 129894050 129894052 410374346 410374347 807180616 209064512 129894049 129894051 171917598 117721442 117721443 117721441 209064518 209064528 209064524 209064523 179220655-n 130268209-n 130268207-n 130242021-n 48893555-n 130242020-n 131245574-n 117725295-n 48891724-n 130268203-n 117732533-n 48571793-n 48571770-n 130268210-n 130268205-n"/>
    </vehicle>
    <vehicle id="41" depart="4.10">
        <route edges="225079642-n 779677958-n 225079640-n 225079641-n 225079481-n 129138636-n 129138637-n 225079482-n 129144756-n 817790090-n 129138634-n 817790091-n 146867755 225104063 117869059 129258300 252807692 117869061 314109637 117869058 178016660 117298004 314192732 863865318 813228469 863865317 844743055 863865283 844743053 178016654 863865274 863865273 863865264 863865265 844743057 225230516 372975572 47570870 130095967 126838099 225231511 839399637 128572885-n 390466919-n 389380355-n 225231884-n#0 225231887-n 225231886-n 225231885-n 815465069-n"/>
    </vehicle>
    <vehicle id="42" depart="4.20">
        <route edges="209028434 904711771 209028420 224462299 224462300 224460904 224460906 209064510 807318602 209064509 179220636-n 807318604-n 807545496-n 209064513-n 209064525-n 807545497-n 209064529 807545498 209064521-n 209064514-n 209064520-n 860650251-n 807322765-n 806729381-n 209064517-n 815466167-n 209064522-n 815466168-n 807322763-n 127102815-n 807180615-n 127095854-n 209064515-n 209064516-n 129894048-n 129894050 129894052 410374346 410374347 807180616 209064512 129894049 129894051 171917598 117721442 117721443 117721441 209064518 209064528 209064524 209064523 179220655-n 149550174 864280679 224621083 224621082 209064527 209064526 209064519 171917598-n 129894051-n 129894049-n 209064512-n 807180616-n 410374347-n 410374346-n 129894052-n 129894050-n 129894048"/>
    </vehicle>
    <vehicle id="43" depart="4.30">
        <route edges="897221428-n 897114840-n 897114841-n 128572903#1 128572903#2 128572903#3 246621177-n 246621179 225102561-n 225102560-n 225102559-n 225101769-n 225101771-n 45769409-n 225101774-n 128572951-n 128572950-n 179219221-n 128611417-n 128567667-n 372242108-n 839399637-n 225231511-n 126838099-n 130095967-n 47570870-n 372975572-n 225230516-n 117348068-n 127091450 117348066 807987489 130242016 252763442 864280704 252763440 252763438 864280701 864280700 209064532 149550174 864280679 224621083 224621082 209064527"/>
    </vehicle>
    <vehicle id="44" depart="4.40">
        <route edges="127102813 209064511 815467762 807318603 127103801 179887853 198369685 209064510 807318602 209064509 179220636-n 807318604-n 807545496-n 209064513-n 209064525-n 807545497-n 209064529 807545498 130803046 225081530 846083189 129894070 846083183 846083188 129894129-n 129894089-n 31257853-n 224621098-n 117869090-n 156635494-n 225079830-n 225079831-n 225079642-n 779677958-n 225079640-n 225079641-n 225079481-n 129138636-n 129138637-n 225079482-n 129144756-n 817790090-n 129138634-n 817790091-n 146867755 225104063 117869059 129258300 252807692 117869061"/>
    </vehicle>
    <vehicle id="45" depart="4.50">
        <route edges="127103054 131240724 131240733 131240723 131240737 225104396 225104394 131240742 131240743 177647275 177068559 131251251 178071548 809230632 131248741 126895098 246271163 117386618 131251249 131251250 226373240 179148020 329695138-n 128549141-n 128564980-n 863043529-n 863043530-n 863043528-n 226373245-n 117348077-n 44883720 815465067-n 225231888-n 128564983-n 815465068 117875386 815465069 225231885 225231886 225231887 225231884#0 225231884#1 815463636 815463635 373337176 814626372 210647592 225232506 210647591 179219221 128572950 128572951 225101774 45769409 225101771 225101769 225102559 225102560 225102561 246621178 246621177 246621177-n 246621179 225102561-n 225102560-n"/>
    </vehicle>
    <vehicle id="46" depart="4.60">
        <route edges="48893555-n 130242020-n 131245574-n 117725295-n 48891724-n 130268203-n 117732533-n 48571793-n 48571770-n 130268210-n 130268205-n 48571937-n 48571937 130268205 130268210 48571770 48571793 117732533 130268203 48891724 117725295 131245574 130242020 48893555 130242021 130268207 130268209 149550174 864280679 224621083 224621082 209064527 209064526 209064519 171917598-n 129894051-n 129894049-n 209064512-n 807180616-n 410374347-n 410374346-n 129894052-n 129894050-n 129894048 209064516 209064515 127095854 807180615 130740907 840190449 224621090 224621095 314088765 840190447 129894129-n 129894089-n 31257853-n 224621098-n 117869090-n 156635494-n 225079830-n 225079831-n 225079642-n 779677958-n 225079640-n 225079639-n 225233696-n 178071518-n 326165455-n 225233694-n 225233695-n 128366364-n 128366375-n 209050565-n 178071522 128366365-n 146867766 209044703"/>
    </vehicle>
    <vehicle id="47" depart="4.70">
        <route edges="121119651 314140799 178082558 134148950 246923389 48572043 131251255 178016665 48572085 224481376 126893694 131251252 191501870 809208200 49807402 224481375 127103057 131254224 131240739 131240730 225104390 225104388 131240728 131240732 131240725 131240722 224459756 224459753 198369697 127103048 127103051 127103053 127103047 807549601 127103052 807549602 127102817 224460907#0 224460907#1 179887853"/>
    </vehicle>
    <vehicle id="48" depart="4.80">
        <route edges="897221428 897114839 128572896 141561211-n 129138633 146867755 225104063 117869059 129258300 252807692 117869061 314109637 117869058 178016660 117298004 314192732 863865318 813228469 863865317 844743055 863865283 844743053 178016654 863865274 863865273 863865264 863865265 844743057 117348068-n 127091450 117348066 807987489 130242016 252763442 864280704 252763440 252763438 864280701 864280700 209064532 130268209-n 130268207-n 130242021-n 48893555-n 130242020-n 131245574-n 117725295-n 48891724-n 130268203-n 117732533-n 48571793-n 48571770-n 130268210-n 130268205-n 48571937-n 809230634 131248757 224481377 224481378 131251254 126895097 131251252 191501870 809208200 49807402 224481375 127103057 131254224 131240739 131240730 225104390 225104388 131240728 131240732 131240725 131240722 224459756"/>
    </vehicle>
    <vehicle id="49" depart="4.90">
        <route edges="863865264 863865265 844743057 117348068-n 127091450 117348066 807987489 130242016 252763442 864280704 252763440 252763438 864280701 864280700 209064532 130268209-n 130268207-n 130242021-n 48893555-n 130242020-n 131245574-n 117725295-n 48891724-n 130268203-n 117732533-n 48571793-n 48571770-n 130268210-n 130268205-n 48571937-n 809230634 131248757 224481377 224481378 131251254 126895097 131251252 191501870 809208200 126895096 131248758 807562119"/>
    </vehicle>
    <vehicle id="50" depart="5.00">
        <route edges="117298003 117348062 106056808 121119647 129258301 314109638 815655356 314109640 314109639 117869059-n 225104063-n 146867755-n 146867755 225104063 117869059 129258300 252807692 117869061 314109637 117869058 178016660 117298004 314192732 863865318 813228469 863865317 844743055 863865283 844743053 178016654 863865274 863865273 863865264 863865265 844743057 46983848 47360659 844743062 47360283 47360486 117298009 128549137 47360440 129709054 129709055 48572043 131251255 178016665 121119651 314140799"/>
    </vehicle>
    <vehicle id="51" depart="5.10">