<?xml version="1.0" encoding="UTF-8"?>

<!-- generated on sex 26 fev 2021 16:07:14 by Eclipse SUMO netedit Version 1.8.0
<configuration xmlns:xsi="http://www.w3.org/2001/XMLSchema-instance" xsi:noNamespaceSchemaLocation="http://sumo.dlr.de/xsd/netconvertConfiguration.xsd">

    <input>
        <sumo-net-file value="/home/arthur/Área%20de%20Trabalho/SUMO/cot/CottbusPositives.net.xml"/>
    </input>

    <output>
        <output-file value="/home/arthur/Área%20de%20Trabalho/SUMO/cot/CottbusNoLeftturns.net.xml"/>
    </output>

    <processing>
        <geometry.min-radius.fix.railways value="false"/>
        <geometry.max-grade.fix value="false"/>
        <offset.disable-normalization value="true"/>
        <lefthand value="false"/>
    </processing>

    <junctions>
        <no-turnarounds value="true"/>
        <junctions.corner-detail value="5"/>
        <junctions.limit-turn-speed value="5.5"/>
        <rectangular-lane-cut value="false"/>
    </junctions>

    <pedestrian>
        <walkingareas value="false"/>
    </pedestrian>

    <report>
        <aggregate-warnings value="5"/>
    </report>

</configuration>
-->

<net version="1.6" junctionCornerDetail="5" limitTurnSpeed="5.50" xmlns:xsi="http://www.w3.org/2001/XMLSchema-instance" xsi:noNamespaceSchemaLocation="http://sumo.dlr.de/xsd/net_file.xsd">

    <location netOffset="-451769.99,-5732977.57" convBoundary="780.30,330.29,3990.86,2906.32" origBoundary="14.300936,51.745800,14.363599,51.776028" projParameter="+proj=utm +zone=33 +ellps=WGS84 +datum=WGS84 +units=m +no_defs"/>

    <type id="highway.bridleway" priority="1" numLanes="1" speed="2.78" allow="pedestrian" oneway="1" width="2.00"/>
    <type id="highway.bus_guideway" priority="1" numLanes="1" speed="27.78" allow="bus" oneway="1"/>
    <type id="highway.cycleway" priority="1" numLanes="1" speed="8.33" allow="bicycle" oneway="1" width="1.00"/>
    <type id="highway.footway" priority="1" numLanes="1" speed="2.78" allow="pedestrian" oneway="1" width="2.00"/>
    <type id="highway.ford" priority="1" numLanes="1" speed="2.78" allow="army" oneway="1"/>
    <type id="highway.living_street" priority="2" numLanes="1" speed="2.78" disallow="tram rail_urban rail rail_electric rail_fast ship" oneway="1"/>
    <type id="highway.motorway" priority="14" numLanes="2" speed="39.44" allow="private emergency authority army vip passenger hov taxi bus coach delivery truck trailer motorcycle evehicle custom1 custom2" oneway="1"/>
    <type id="highway.motorway_link" priority="9" numLanes="1" speed="22.22" allow="private emergency authority army vip passenger hov taxi bus coach delivery truck trailer motorcycle evehicle custom1 custom2" oneway="1"/>
    <type id="highway.path" priority="1" numLanes="1" speed="2.78" allow="pedestrian bicycle" oneway="1" width="2.00"/>
    <type id="highway.pedestrian" priority="1" numLanes="1" speed="2.78" allow="pedestrian" oneway="1" width="2.00"/>
    <type id="highway.primary" priority="12" numLanes="2" speed="27.78" disallow="tram rail_urban rail rail_electric rail_fast ship" oneway="1"/>
    <type id="highway.primary_link" priority="7" numLanes="1" speed="22.22" disallow="tram rail_urban rail rail_electric rail_fast ship" oneway="1"/>
    <type id="highway.raceway" priority="15" numLanes="2" speed="83.33" allow="vip" oneway="1"/>
    <type id="highway.residential" priority="3" numLanes="1" speed="13.89" disallow="tram rail_urban rail rail_electric rail_fast ship" oneway="1"/>
    <type id="highway.secondary" priority="11" numLanes="1" speed="27.78" disallow="tram rail_urban rail rail_electric rail_fast ship" oneway="1"/>
    <type id="highway.secondary_link" priority="6" numLanes="1" speed="22.22" disallow="tram rail_urban rail rail_electric rail_fast ship" oneway="1"/>
    <type id="highway.service" priority="1" numLanes="1" speed="5.56" allow="pedestrian delivery bicycle" oneway="1"/>
    <type id="highway.stairs" priority="1" numLanes="1" speed="1.39" allow="pedestrian" oneway="1" width="2.00"/>
    <type id="highway.step" priority="1" numLanes="1" speed="1.39" allow="pedestrian" oneway="1" width="2.00"/>
    <type id="highway.steps" priority="1" numLanes="1" speed="1.39" allow="pedestrian" oneway="1" width="2.00"/>
    <type id="highway.tertiary" priority="10" numLanes="1" speed="22.22" disallow="tram rail_urban rail rail_electric rail_fast ship" oneway="1"/>
    <type id="highway.tertiary_link" priority="5" numLanes="1" speed="22.22" disallow="tram rail_urban rail rail_electric rail_fast ship" oneway="1"/>
    <type id="highway.track" priority="1" numLanes="1" speed="5.56" allow="pedestrian motorcycle moped bicycle" oneway="1"/>
    <type id="highway.trunk" priority="13" numLanes="2" speed="27.78" disallow="pedestrian bicycle tram rail_urban rail rail_electric rail_fast ship" oneway="1"/>
    <type id="highway.trunk_link" priority="8" numLanes="1" speed="22.22" disallow="pedestrian bicycle tram rail_urban rail rail_electric rail_fast ship" oneway="1"/>
    <type id="highway.unclassified" priority="4" numLanes="1" speed="13.89" disallow="tram rail_urban rail rail_electric rail_fast ship" oneway="1"/>
    <type id="highway.unsurfaced" priority="1" numLanes="1" speed="8.33" disallow="tram rail_urban rail rail_electric rail_fast ship" oneway="1"/>
    <type id="railway.highspeed" priority="21" numLanes="1" speed="69.44" allow="rail_fast" oneway="1"/>
    <type id="railway.light_rail" priority="19" numLanes="1" speed="27.78" allow="rail_urban" oneway="1"/>
    <type id="railway.preserved" priority="16" numLanes="1" speed="27.78" allow="rail" oneway="1"/>
    <type id="railway.rail" priority="20" numLanes="1" speed="44.44" allow="rail" oneway="1"/>
    <type id="railway.subway" priority="18" numLanes="1" speed="27.78" allow="rail_urban" oneway="1"/>
    <type id="railway.tram" priority="17" numLanes="1" speed="13.89" allow="tram" oneway="1"/>

    <edge id=":1217698487_0" function="internal">
        <lane id=":1217698487_0_0" index="0" disallow="tram rail_urban rail rail_electric rail_fast ship" speed="13.89" length="7.89" shape="1447.24,887.94 1440.09,891.29"/>
    </edge>
    <edge id=":1217698487_1" function="internal">
        <lane id=":1217698487_1_0" index="0" disallow="tram rail_urban rail rail_electric rail_fast ship" speed="13.89" length="8.83" shape="1437.29,885.54 1439.72,884.91 1441.58,885.24 1443.45,885.59 1445.92,885.02"/>
    </edge>
    <edge id=":1217772982_0" function="internal">
        <lane id=":1217772982_0_0" index="0" disallow="tram rail_urban rail rail_electric rail_fast ship" speed="13.89" length="0.14" shape="2881.68,1484.10 2881.60,1484.07"/>
        <lane id=":1217772982_0_1" index="1" disallow="tram rail_urban rail rail_electric rail_fast ship" speed="13.89" length="0.14" shape="2883.00,1481.19 2882.82,1481.11"/>
    </edge>
    <edge id=":1217772982_2" function="internal">
        <lane id=":1217772982_2_0" index="0" disallow="tram rail_urban rail rail_electric rail_fast ship" speed="13.89" length="0.35" shape="2885.27,1475.20 2885.64,1475.36"/>
        <lane id=":1217772982_2_1" index="1" disallow="tram rail_urban rail rail_electric rail_fast ship" speed="13.89" length="0.35" shape="2884.05,1478.15 2884.32,1478.27"/>
    </edge>
    <edge id=":1217772992_0" function="internal">
        <lane id=":1217772992_0_0" index="0" disallow="tram rail_urban rail rail_electric rail_fast ship" speed="13.89" length="8.18" shape="3121.32,1600.29 3119.02,1599.51 3117.20,1599.73 3115.36,1599.97 3113.01,1599.28"/>
        <lane id=":1217772992_0_1" index="1" disallow="tram rail_urban rail rail_electric rail_fast ship" speed="13.89" length="8.18" shape="3121.32,1600.29 3114.52,1596.46"/>
    </edge>
    <edge id=":1217772992_2" function="internal">
        <lane id=":1217772992_2_0" index="0" disallow="tram rail_urban rail rail_electric rail_fast ship" speed="13.89" length="8.01" shape="3117.54,1590.82 3124.58,1594.79"/>
        <lane id=":1217772992_2_1" index="1" disallow="tram rail_urban rail rail_electric rail_fast ship" speed="13.89" length="8.01" shape="3116.03,1593.64 3122.95,1597.54"/>
    </edge>
    <edge id=":1313062085_0" function="internal">
        <lane id=":1313062085_0_0" index="0" disallow="tram rail_urban rail rail_electric rail_fast ship" speed="13.89" length="8.39" shape="958.02,1075.77 956.57,1077.79 955.66,1079.24 954.93,1080.79 954.02,1083.10"/>
    </edge>
    <edge id=":1313062085_1" function="internal">
        <lane id=":1313062085_1_0" index="0" disallow="tram rail_urban rail rail_electric rail_fast ship" speed="13.89" length="10.31" shape="948.05,1080.79 949.56,1078.29 951.32,1077.09 953.29,1076.01 955.43,1073.89"/>
    </edge>
    <edge id=":1319404515_0" function="internal">
        <lane id=":1319404515_0_0" index="0" disallow="tram rail_urban rail rail_electric rail_fast ship" speed="13.89" length="9.42" shape="3926.38,2409.82 3927.51,2407.59 3928.19,2406.01 3928.64,2404.36 3929.14,2401.91"/>
        <lane id=":1319404515_0_1" index="1" disallow="tram rail_urban rail rail_electric rail_fast ship" speed="13.89" length="9.42" shape="3929.22,2411.30 3930.48,2408.83 3931.22,2407.07 3931.73,2405.24 3932.28,2402.52"/>
        <lane id=":1319404515_0_2" index="2" disallow="tram rail_urban rail rail_electric rail_fast ship" speed="13.89" length="9.42" shape="3929.22,2411.30 3931.05,2408.81 3932.84,2407.40 3934.37,2405.89 3935.42,2403.13"/>
    </edge>
    <edge id=":1319404518_0" function="internal">
        <lane id=":1319404518_0_0" index="0" disallow="tram rail_urban rail rail_electric rail_fast ship" speed="13.89" length="10.48" shape="3888.14,2480.93 3890.06,2478.64 3891.27,2476.98 3892.30,2475.20 3893.69,2472.54"/>
        <lane id=":1319404518_0_1" index="1" disallow="tram rail_urban rail rail_electric rail_fast ship" speed="13.89" length="10.48" shape="3890.56,2483.02 3892.63,2480.56 3893.93,2478.78 3895.04,2476.87 3896.53,2474.02"/>
    </edge>
    <edge id=":1319404518_2" function="internal">
        <lane id=":1319404518_2_0" index="0" disallow="tram rail_urban rail rail_electric rail_fast ship" speed="7.37" length="9.36" shape="3890.56,2483.02 3892.37,2481.44 3894.38,2480.65 3896.61,2480.65 3899.06,2481.44"/>
    </edge>
    <edge id=":1319404545_0" function="internal">
        <lane id=":1319404545_0_0" index="0" disallow="tram rail_urban rail rail_electric rail_fast ship" speed="7.68" length="7.49" shape="3871.69,2508.43 3870.65,2505.95 3870.36,2503.65 3870.82,2501.54 3872.02,2499.62"/>
        <lane id=":1319404545_0_1" index="1" disallow="tram rail_urban rail rail_electric rail_fast ship" speed="6.03" length="7.49" shape="3874.50,2506.89 3873.83,2505.37 3873.60,2503.99 3873.81,2502.77 3874.44,2501.71"/>
    </edge>
    <edge id=":1319404545_2" function="internal">
        <lane id=":1319404545_2_0" index="0" disallow="tram rail_urban rail rail_electric rail_fast ship" speed="13.89" length="8.45" shape="3865.87,2504.48 3867.90,2503.31 3869.26,2502.43 3870.45,2501.35 3872.02,2499.62"/>
        <lane id=":1319404545_2_1" index="1" disallow="tram rail_urban rail rail_electric rail_fast ship" speed="13.89" length="8.45" shape="3867.47,2507.25 3869.78,2505.92 3871.31,2504.91 3872.67,2503.68 3874.44,2501.71"/>
    </edge>
    <edge id=":1319404558_0" function="internal">
        <lane id=":1319404558_0_0" index="0" disallow="tram rail_urban rail rail_electric rail_fast ship" speed="6.68" length="6.41" shape="3911.79,2511.97 3911.66,2513.64 3911.11,2515.07 3910.14,2516.25 3908.75,2517.19"/>
    </edge>
    <edge id=":1319404581_0" function="internal">
        <lane id=":1319404581_0_0" index="0" disallow="tram rail_urban rail rail_electric rail_fast ship" speed="13.89" length="8.11" shape="3787.06,2558.00 3779.66,2561.31"/>
    </edge>
    <edge id=":1319404581_1" function="internal">
        <lane id=":1319404581_1_0" index="0" disallow="tram rail_urban rail rail_electric rail_fast ship" speed="13.89" length="8.18" shape="3778.29,2558.42 3780.21,2556.96 3781.02,2555.33 3781.80,2553.64 3783.63,2552.01"/>
        <lane id=":1319404581_1_1" index="1" disallow="tram rail_urban rail rail_electric rail_fast ship" speed="13.89" length="8.18" shape="3778.29,2558.42 3785.22,2554.79"/>
    </edge>
    <edge id=":1321033350_0" function="internal">
        <lane id=":1321033350_0_0" index="0" disallow="tram rail_urban rail rail_electric rail_fast ship" speed="11.11" length="9.74" shape="1876.69,929.02 1876.34,931.87 1875.71,933.76 1875.04,935.65 1874.57,938.48"/>
    </edge>
    <edge id=":1321033350_1" function="internal">
        <lane id=":1321033350_1_0" index="0" disallow="tram rail_urban rail rail_electric rail_fast ship" speed="6.05" length="7.85" shape="1873.49,928.92 1873.19,931.69 1872.52,933.63 1871.46,934.76 1870.02,935.06"/>
    </edge>
    <edge id=":1321033350_2" function="internal">
        <lane id=":1321033350_2_0" index="0" disallow="tram rail_urban rail rail_electric rail_fast ship" speed="6.47" length="8.99" shape="1870.24,931.86 1872.31,932.40 1873.73,933.68 1874.48,935.71 1874.57,938.48"/>
    </edge>
    <edge id=":1321033350_3" function="internal">
        <lane id=":1321033350_3_0" index="0" disallow="tram rail_urban rail rail_electric rail_fast ship" speed="3.65" length="4.67" shape="1870.24,931.86 1871.38,932.74 1871.73,933.57 1871.27,934.34 1870.02,935.06"/>
    </edge>
    <edge id=":1321033361_0" function="internal">
        <lane id=":1321033361_0_0" index="0" disallow="tram rail_urban rail rail_electric rail_fast ship" speed="8.33" length="0.30" shape="1870.01,998.38 1869.99,998.68"/>
    </edge>
    <edge id=":1321033362_0" function="internal">
        <lane id=":1321033362_0_0" index="0" disallow="tram rail_urban rail rail_electric rail_fast ship" speed="8.33" length="8.14" shape="1861.24,1002.57 1861.14,1000.19 1860.68,998.59 1860.20,996.98 1860.02,994.60"/>
        <lane id=":1321033362_0_1" index="1" disallow="tram rail_urban rail rail_electric rail_fast ship" speed="8.33" length="8.14" shape="1861.24,1002.57 1861.64,1000.20 1862.28,998.63 1862.89,997.07 1863.22,994.69"/>
    </edge>
    <edge id=":1321033376_0" function="internal">
        <lane id=":1321033376_0_0" index="0" disallow="tram rail_urban rail rail_electric rail_fast ship" speed="8.33" length="8.20" shape="1861.37,1104.70 1861.48,1107.10 1861.94,1108.73 1862.39,1110.37 1862.49,1112.77"/>
    </edge>
    <edge id=":1321033377_0" function="internal">
        <lane id=":1321033377_0_0" index="0" disallow="tram rail_urban rail rail_electric rail_fast ship" speed="8.33" length="0.30" shape="1858.97,1219.74 1858.96,1220.02"/>
        <lane id=":1321033377_0_1" index="1" disallow="tram rail_urban rail rail_electric rail_fast ship" speed="8.33" length="0.30" shape="1855.78,1219.54 1855.76,1219.84"/>
        <lane id=":1321033377_0_2" index="2" disallow="tram rail_urban rail rail_electric rail_fast ship" speed="8.33" length="0.30" shape="1852.59,1219.34 1852.57,1219.66"/>
    </edge>
    <edge id=":1321033378_0" function="internal">
        <lane id=":1321033378_0_0" index="0" disallow="tram rail_urban rail rail_electric rail_fast ship" speed="7.23" length="11.34" shape="1862.31,1258.54 1858.44,1258.62 1855.63,1259.39 1853.88,1260.85 1853.18,1263.01"/>
    </edge>
    <edge id=":1321033378_1" function="internal">
        <lane id=":1321033378_1_0" index="0" disallow="tram rail_urban rail rail_electric rail_fast ship" speed="8.33" length="14.62" shape="1862.31,1258.54 1858.10,1257.78 1855.35,1256.51 1852.60,1255.24 1848.39,1254.46"/>
        <lane id=":1321033378_1_1" index="1" disallow="tram rail_urban rail rail_electric rail_fast ship" speed="8.33" length="14.62" shape="1862.50,1255.35 1858.30,1254.59 1855.55,1253.32 1852.80,1252.04 1848.59,1251.27"/>
    </edge>
    <edge id=":1321033378_3" function="internal">
        <lane id=":1321033378_3_0" index="0" disallow="tram rail_urban rail rail_electric rail_fast ship" speed="3.65" length="2.52" shape="1862.70,1252.15 1861.55,1251.28 1861.20,1250.46 1861.30,1250.30"/>
    </edge>
    <edge id=":1321033378_11" function="internal">
        <lane id=":1321033378_11_0" index="0" disallow="tram rail_urban rail rail_electric rail_fast ship" speed="3.65" length="2.15" shape="1861.30,1250.30 1861.65,1249.68 1862.90,1248.96"/>
    </edge>
    <edge id=":1321033378_4" function="internal">
        <lane id=":1321033378_4_0" index="0" disallow="tram rail_urban rail rail_electric rail_fast ship" speed="7.35" length="11.75" shape="1858.03,1236.60 1858.16,1240.48 1859.05,1243.30 1860.69,1245.06 1863.09,1245.76"/>
    </edge>
    <edge id=":1321033378_5" function="internal">
        <lane id=":1321033378_5_0" index="0" disallow="tram rail_urban rail rail_electric rail_fast ship" speed="8.33" length="26.64" shape="1854.83,1236.42 1853.18,1263.01"/>
    </edge>
    <edge id=":1321033378_6" function="internal">
        <lane id=":1321033378_6_0" index="0" disallow="tram rail_urban rail rail_electric rail_fast ship" speed="8.33" length="15.68" shape="1851.64,1236.24 1851.13,1242.87 1850.45,1247.58 1849.61,1250.38 1848.59,1251.27"/>
    </edge>
    <edge id=":1321033378_7" function="internal">
        <lane id=":1321033378_7_0" index="0" disallow="tram rail_urban rail rail_electric rail_fast ship" speed="8.33" length="14.59" shape="1849.21,1241.69 1853.41,1242.46 1856.15,1243.74 1858.89,1245.01 1863.09,1245.76"/>
        <lane id=":1321033378_7_1" index="1" disallow="tram rail_urban rail rail_electric rail_fast ship" speed="8.33" length="14.59" shape="1849.00,1244.88 1853.21,1245.65 1855.95,1246.93 1858.69,1248.20 1862.90,1248.96"/>
    </edge>
    <edge id=":1321033378_9" function="internal">
        <lane id=":1321033378_9_0" index="0" disallow="tram rail_urban rail rail_electric rail_fast ship" speed="8.33" length="3.73" shape="1848.80,1248.08 1851.09,1249.14 1851.65,1250.20"/>
    </edge>
    <edge id=":1321033378_10" function="internal">
        <lane id=":1321033378_10_0" index="0" disallow="tram rail_urban rail rail_electric rail_fast ship" speed="3.65" length="2.52" shape="1848.80,1248.08 1849.94,1248.95 1850.29,1249.78 1850.20,1249.94"/>
    </edge>
    <edge id=":1321033378_12" function="internal">
        <lane id=":1321033378_12_0" index="0" disallow="tram rail_urban rail rail_electric rail_fast ship" speed="8.33" length="13.09" shape="1851.65,1250.20 1852.58,1251.98 1853.28,1256.61 1853.18,1263.01"/>
    </edge>
    <edge id=":1321033378_13" function="internal">
        <lane id=":1321033378_13_0" index="0" disallow="tram rail_urban rail rail_electric rail_fast ship" speed="3.65" length="2.15" shape="1850.20,1249.94 1849.84,1250.55 1848.59,1251.27"/>
    </edge>
    <edge id=":1321033381_0" function="internal">
        <lane id=":1321033381_0_0" index="0" disallow="tram rail_urban rail rail_electric rail_fast ship" speed="8.33" length="8.21" shape="1838.46,1450.59 1838.53,1453.00 1838.96,1454.64 1839.39,1456.28 1839.47,1458.69"/>
    </edge>
    <edge id=":1321033412_0" function="internal">
        <lane id=":1321033412_0_0" index="0" disallow="tram rail_urban rail rail_electric rail_fast ship" speed="13.89" length="0.42" shape="1826.72,1733.17 1826.72,1733.23 1826.71,1733.28 1826.72,1733.32 1826.72,1733.38"/>
        <lane id=":1321033412_0_1" index="1" disallow="tram rail_urban rail rail_electric rail_fast ship" speed="13.89" length="0.42" shape="1823.53,1732.89 1823.52,1733.08 1823.51,1733.20 1823.51,1733.33 1823.52,1733.52"/>
    </edge>
    <edge id=":1321047519_0" function="internal">
        <lane id=":1321047519_0_0" index="0" disallow="tram rail_urban rail rail_electric rail_fast ship" speed="11.11" length="7.96" shape="1818.32,1728.52 1818.13,1726.20 1817.60,1724.64 1817.06,1723.08 1816.82,1720.76"/>
    </edge>
    <edge id=":1321047523_0" function="internal">
        <lane id=":1321047523_0_0" index="0" disallow="tram rail_urban rail rail_electric rail_fast ship" speed="13.89" length="0.28" shape="1814.92,1732.99 1814.93,1732.68"/>
        <lane id=":1321047523_0_1" index="1" disallow="tram rail_urban rail rail_electric rail_fast ship" speed="13.89" length="0.28" shape="1818.12,1733.07 1818.12,1732.83"/>
    </edge>
    <edge id=":1321522504_0" function="internal">
        <lane id=":1321522504_0_0" index="0" disallow="tram rail_urban rail rail_electric rail_fast ship" speed="13.89" length="0.19" shape="1854.10,934.23 1853.90,934.23"/>
    </edge>
    <edge id=":1321522504_1" function="internal">
        <lane id=":1321522504_1_0" index="0" disallow="tram rail_urban rail rail_electric rail_fast ship" speed="13.89" length="0.31" shape="1854.02,927.83 1854.37,927.84"/>
        <lane id=":1321522504_1_1" index="1" disallow="tram rail_urban rail rail_electric rail_fast ship" speed="13.89" length="0.31" shape="1853.96,931.03 1854.23,931.04"/>
    </edge>
    <edge id=":1321522508_0" function="internal">
        <lane id=":1321522508_0_0" index="0" disallow="tram rail_urban rail rail_electric rail_fast ship" speed="8.33" length="0.30" shape="1861.34,949.98 1861.34,949.69"/>
        <lane id=":1321522508_0_1" index="1" disallow="tram rail_urban rail rail_electric rail_fast ship" speed="8.33" length="0.30" shape="1864.53,950.08 1864.54,949.77"/>
    </edge>
    <edge id=":1321522535_0" function="internal">
        <lane id=":1321522535_0_0" index="0" disallow="tram rail_urban rail rail_electric rail_fast ship" speed="8.33" length="0.26" shape="1829.24,1702.88 1829.22,1703.19"/>
        <lane id=":1321522535_0_1" index="1" disallow="tram rail_urban rail rail_electric rail_fast ship" speed="8.33" length="0.26" shape="1826.05,1702.71 1826.03,1702.93"/>
    </edge>
    <edge id=":1321606360_0" function="internal">
        <lane id=":1321606360_0_0" index="0" disallow="tram rail_urban rail rail_electric rail_fast ship" speed="8.33" length="0.25" shape="1864.22,1258.66 1864.01,1258.65"/>
        <lane id=":1321606360_0_1" index="1" disallow="tram rail_urban rail rail_electric rail_fast ship" speed="8.33" length="0.25" shape="1864.46,1255.47 1864.21,1255.45"/>
        <lane id=":1321606360_0_2" index="2" disallow="tram rail_urban rail rail_electric rail_fast ship" speed="8.33" length="0.25" shape="1864.70,1252.28 1864.41,1252.26"/>
    </edge>
    <edge id=":1321606360_3" function="internal">
        <lane id=":1321606360_3_0" index="0" disallow="tram rail_urban rail rail_electric rail_fast ship" speed="11.11" length="0.36" shape="1864.80,1245.87 1865.18,1245.90"/>
        <lane id=":1321606360_3_1" index="1" disallow="tram rail_urban rail rail_electric rail_fast ship" speed="11.11" length="0.36" shape="1864.60,1249.06 1864.94,1249.09"/>
    </edge>
    <edge id=":1322267501_0" function="internal">
        <lane id=":1322267501_0_0" index="0" disallow="tram rail_urban rail rail_electric rail_fast ship" speed="8.33" length="8.21" shape="1855.52,1112.48 1855.43,1110.07 1855.00,1108.44 1854.56,1106.80 1854.47,1104.39"/>
    </edge>
    <edge id=":1324392622_0" function="internal">
        <lane id=":1324392622_0_0" index="0" disallow="tram rail_urban rail rail_electric rail_fast ship" speed="13.89" length="8.05" shape="2197.77,1176.05 2195.59,1168.31"/>
    </edge>
    <edge id=":1324392622_1" function="internal">
        <lane id=":1324392622_1_0" index="0" disallow="tram rail_urban rail rail_electric rail_fast ship" speed="13.89" length="9.12" shape="2198.68,1167.49 2200.31,1169.75 2202.75,1170.38 2205.23,1171.01 2206.97,1173.28"/>
        <lane id=":1324392622_1_1" index="1" disallow="tram rail_urban rail rail_electric rail_fast ship" speed="13.89" length="9.12" shape="2198.68,1167.49 2199.78,1169.70 2201.24,1170.86 2202.72,1172.02 2203.90,1174.20"/>
        <lane id=":1324392622_1_2" index="2" disallow="tram rail_urban rail rail_electric rail_fast ship" speed="13.89" length="9.12" shape="2198.68,1167.49 2200.84,1175.13"/>
    </edge>
    <edge id=":1324392624_0" function="internal">
        <lane id=":1324392624_0_0" index="0" disallow="tram rail_urban rail rail_electric rail_fast ship" speed="13.89" length="0.41" shape="2210.81,1219.43 2210.80,1219.31 2210.79,1219.23 2210.77,1219.15 2210.74,1219.03"/>
    </edge>
    <edge id=":1324392624_1" function="internal">
        <lane id=":1324392624_1_0" index="0" disallow="tram rail_urban rail rail_electric rail_fast ship" speed="13.89" length="2.05" shape="2219.93,1216.26 2220.17,1217.07 2220.30,1217.64 2220.36,1218.22 2220.40,1219.07"/>
        <lane id=":1324392624_1_1" index="1" disallow="tram rail_urban rail rail_electric rail_fast ship" speed="13.89" length="2.05" shape="2216.87,1217.18 2217.04,1217.76 2217.13,1218.17 2217.17,1218.58 2217.20,1219.19"/>
        <lane id=":1324392624_1_2" index="2" disallow="tram rail_urban rail rail_electric rail_fast ship" speed="13.89" length="2.05" shape="2213.80,1218.10 2213.91,1218.45 2213.96,1218.70 2213.99,1218.95 2214.00,1219.31"/>
    </edge>
    <edge id=":1324401307_0" function="internal">
        <lane id=":1324401307_0_0" index="0" disallow="tram rail_urban rail rail_electric rail_fast ship" speed="13.89" length="0.75" shape="2188.68,1084.58 2188.68,1084.36 2188.69,1084.20 2188.70,1084.05 2188.74,1083.83"/>
    </edge>
    <edge id=":1324401307_1" function="internal">
        <lane id=":1324401307_1_0" index="0" disallow="tram rail_urban rail rail_electric rail_fast ship" speed="13.89" length="0.25" shape="2191.90,1084.31 2191.89,1084.39 2191.88,1084.44 2191.88,1084.49 2191.88,1084.56"/>
    </edge>
    <edge id=":1324905551_0" function="internal">
        <lane id=":1324905551_0_0" index="0" disallow="tram rail_urban rail rail_electric rail_fast ship" speed="13.89" length="0.58" shape="2129.42,337.61 2128.81,337.71"/>
        <lane id=":1324905551_0_1" index="1" disallow="tram rail_urban rail rail_electric rail_fast ship" speed="13.89" length="0.58" shape="2129.90,340.77 2129.32,340.87"/>
        <lane id=":1324905551_0_2" index="2" disallow="tram rail_urban rail rail_electric rail_fast ship" speed="13.89" length="0.58" shape="2130.38,343.93 2129.83,344.03"/>
        <lane id=":1324905551_0_3" index="3" disallow="tram rail_urban rail rail_electric rail_fast ship" speed="13.89" length="0.58" shape="2130.87,347.10 2130.34,347.18"/>
    </edge>
    <edge id=":1325055357_0" function="internal">
        <lane id=":1325055357_0_0" index="0" disallow="tram rail_urban rail rail_electric rail_fast ship" speed="13.89" length="5.33" shape="2186.58,518.35 2186.71,519.88 2187.18,520.89 2187.67,521.91 2187.88,523.44"/>
    </edge>
    <edge id=":1325086870_0" function="internal">
        <lane id=":1325086870_0_0" index="0" disallow="tram rail_urban rail rail_electric rail_fast ship" speed="13.89" length="8.61" shape="2007.98,391.09 2005.63,391.97 2004.29,393.29 2002.95,394.62 2000.61,395.51"/>
        <lane id=":1325086870_0_1" index="1" disallow="tram rail_urban rail rail_electric rail_fast ship" speed="13.89" length="8.61" shape="2007.48,387.93 2005.13,388.81 2003.79,390.13 2002.44,391.46 2000.09,392.35"/>
        <lane id=":1325086870_0_2" index="2" disallow="tram rail_urban rail rail_electric rail_fast ship" speed="13.89" length="8.61" shape="2007.48,387.93 1999.58,389.19"/>
        <lane id=":1325086870_0_3" index="3" disallow="tram rail_urban rail rail_electric rail_fast ship" speed="13.89" length="8.61" shape="2007.48,387.93 2004.97,387.82 2003.27,386.97 2001.57,386.13 1999.06,386.04"/>
    </edge>
    <edge id=":1325223643_0" function="internal">
        <lane id=":1325223643_0_0" index="0" disallow="tram rail_urban rail rail_electric rail_fast ship" speed="15.28" length="11.36" shape="3484.48,722.17 3493.11,729.70"/>
        <lane id=":1325223643_0_1" index="1" disallow="tram rail_urban rail rail_electric rail_fast ship" speed="15.28" length="11.36" shape="3482.44,724.64 3490.93,732.04"/>
    </edge>
    <edge id=":1325223643_2" function="internal">
        <lane id=":1325223643_2_0" index="0" disallow="tram rail_urban rail rail_electric rail_fast ship" speed="5.85" length="7.98" shape="3482.44,724.64 3484.20,726.45 3484.96,728.16 3484.74,729.78 3483.53,731.32"/>
    </edge>
    <edge id=":1325223696_0" function="internal">
        <lane id=":1325223696_0_0" index="0" disallow="tram rail_urban rail rail_electric rail_fast ship" speed="13.89" length="8.29" shape="3366.90,826.49 3365.01,828.05 3363.77,829.20 3362.64,830.46 3361.10,832.37"/>
    </edge>
    <edge id=":1325223696_1" function="internal">
        <lane id=":1325223696_1_0" index="0" disallow="tram rail_urban rail rail_electric rail_fast ship" speed="13.89" length="9.41" shape="3358.60,830.38 3359.99,827.84 3360.39,825.72 3360.91,823.73 3362.68,821.55"/>
        <lane id=":1325223696_1_1" index="1" disallow="tram rail_urban rail rail_electric rail_fast ship" speed="13.89" length="9.41" shape="3358.60,830.38 3360.25,828.32 3361.45,826.96 3362.76,825.71 3364.76,823.98"/>
    </edge>
    <edge id=":1325277170_0" function="internal">
        <lane id=":1325277170_0_0" index="0" disallow="tram rail_urban rail rail_electric rail_fast ship" speed="13.89" length="0.80" shape="3944.16,2324.65 3944.18,2324.57 3944.19,2324.52 3944.19,2324.47 3944.19,2324.39"/>
        <lane id=":1325277170_0_1" index="1" disallow="tram rail_urban rail rail_electric rail_fast ship" speed="13.89" length="0.80" shape="3947.30,2325.26 3947.35,2325.03 3947.37,2324.87 3947.38,2324.71 3947.39,2324.47"/>
        <lane id=":1325277170_0_2" index="2" disallow="tram rail_urban rail rail_electric rail_fast ship" speed="13.89" length="0.80" shape="3950.44,2325.87 3950.52,2325.49 3950.56,2325.22 3950.58,2324.95 3950.59,2324.55"/>
    </edge>
    <edge id=":1325416291_0" function="internal">
        <lane id=":1325416291_0_0" index="0" disallow="tram rail_urban rail rail_electric rail_fast ship" speed="13.89" length="0.42" shape="2814.49,1829.85 2814.42,1829.84 2814.38,1829.84 2814.34,1829.84 2814.28,1829.85"/>