<?xml version="1.0" encoding="UTF-8"?>

<!-- generated on sex 05 mar 2021 14:07:39 by Eclipse SUMO netedit Version 1.8.0
<configuration xmlns:xsi="http://www.w3.org/2001/XMLSchema-instance" xsi:noNamespaceSchemaLocation="http://sumo.dlr.de/xsd/netconvertConfiguration.xsd">

    <output>
        <output-file value="/home/arthur/Ãrea%20de%20Trabalho/SUMO/cot/Cottbus.net.xml"/>
    </output>

    <processing>
        <offset.disable-normalization value="true"/>
    </processing>

    <junctions>
        <no-turnarounds value="true"/>
    </junctions>

    <report>
        <aggregate-warnings value="5"/>
    </report>

</configuration>
-->

<net version="1.6" junctionCornerDetail="5" limitTurnSpeed="5.50" xmlns:xsi="http://www.w3.org/2001/XMLSchema-instance" xsi:noNamespaceSchemaLocation="http://sumo.dlr.de/xsd/net_file.xsd">

    <location netOffset="0.00,0.00" convBoundary="-132.80,-1622.31,3101.10,802.85" origBoundary="10000000000.00,10000000000.00,-10000000000.00,-10000000000.00" projParameter="!"/>

    <edge id=":gneJ10_0" function="internal">
        <lane id=":gneJ10_0_0" index="0" speed="7.76" length="12.90" shape="2542.92,-1275.55 2540.69,-1276.75 2538.09,-1276.59 2535.11,-1275.07 2531.76,-1272.18"/>
    </edge>
    <edge id=":gneJ10_1" function="internal">
        <lane id=":gneJ10_1_0" index="0" speed="13.89" length="23.08" shape="2542.92,-1275.55 2538.09,-1279.58 2533.93,-1282.04 2529.34,-1283.77 2523.27,-1285.60"/>
        <lane id=":gneJ10_1_1" index="1" speed="13.89" length="23.08" shape="2545.09,-1277.91 2540.07,-1282.04 2535.47,-1284.75 2530.46,-1286.72 2524.19,-1288.67"/>
    </edge>
    <edge id=":gneJ10_3" function="internal">
        <lane id=":gneJ10_3_0" index="0" speed="13.89" length="25.92" shape="2526.03,-1294.80 2532.69,-1292.63 2538.56,-1290.16 2544.01,-1286.97 2549.42,-1282.61"/>
        <lane id=":gneJ10_3_1" index="1" speed="13.89" length="25.92" shape="2525.11,-1291.73 2531.58,-1289.68 2537.02,-1287.46 2542.04,-1284.51 2547.26,-1280.26"/>
    </edge>
    <edge id=":gneJ10_5" function="internal">
        <lane id=":gneJ10_5_0" index="0" speed="8.81" length="8.54" shape="2525.11,-1291.73 2531.61,-1288.78 2532.45,-1287.66"/>
    </edge>
    <edge id=":gneJ10_8" function="internal">
        <lane id=":gneJ10_8_0" index="0" speed="8.81" length="15.41" shape="2532.45,-1287.66 2534.51,-1284.91 2533.80,-1280.13 2529.49,-1274.44"/>
    </edge>
    <edge id=":gneJ10_6" function="internal">
        <lane id=":gneJ10_6_0" index="0" speed="5.70" length="9.21" shape="2524.95,-1278.95 2526.61,-1281.14 2526.88,-1282.98 2525.77,-1284.47 2523.27,-1285.60"/>
    </edge>
    <edge id=":gneJ10_7" function="internal">
        <lane id=":gneJ10_7_0" index="0" speed="10.16" length="6.55" shape="2527.22,-1276.70 2532.29,-1280.84"/>
    </edge>
    <edge id=":gneJ10_9" function="internal">
        <lane id=":gneJ10_9_0" index="0" speed="10.16" length="16.30" shape="2532.29,-1280.84 2532.76,-1281.23 2537.94,-1283.33 2542.78,-1283.01 2547.26,-1280.26"/>
    </edge>
    <edge id=":gneJ11_0" function="internal">
        <lane id=":gneJ11_0_0" index="0" speed="7.09" length="4.47" shape="3059.96,-796.71 3059.82,-797.84 3059.47,-798.88 3058.92,-799.82 3058.15,-800.67"/>
    </edge>
    <edge id=":gneJ11_1" function="internal">
        <lane id=":gneJ11_1_0" index="0" speed="8.74" length="7.02" shape="3063.16,-796.80 3062.94,-798.58 3062.39,-800.21 3061.52,-801.69 3060.32,-803.02"/>
    </edge>
    <edge id=":gneJ11_2" function="internal">
        <lane id=":gneJ11_2_0" index="0" speed="3.65" length="2.17" shape="3063.16,-796.80 3063.92,-798.03 3064.56,-798.37"/>
    </edge>
    <edge id=":gneJ11_6" function="internal">
        <lane id=":gneJ11_6_0" index="0" speed="3.65" length="2.50" shape="3064.56,-798.37 3064.71,-798.45 3065.52,-798.07 3066.35,-796.89"/>
    </edge>
    <edge id=":gneJ11_3" function="internal">
        <lane id=":gneJ11_3_0" index="0" speed="11.99" length="13.58" shape="3064.66,-807.73 3068.17,-804.30 3070.68,-801.38 3072.21,-798.97 3072.75,-797.08"/>
    </edge>
    <edge id=":gneJ11_4" function="internal">
        <lane id=":gneJ11_4_0" index="0" speed="10.87" length="11.08" shape="3062.49,-805.38 3065.56,-802.43 3067.76,-800.05 3069.09,-798.24 3069.55,-796.99"/>
    </edge>
    <edge id=":gneJ11_5" function="internal">
        <lane id=":gneJ11_5_0" index="0" speed="10.13" length="9.57" shape="3062.49,-805.38 3064.13,-803.56 3065.32,-801.54 3066.06,-799.32 3066.35,-796.89"/>
    </edge>
    <edge id=":gneJ12_0" function="internal">
        <lane id=":gneJ12_0_0" index="0" speed="13.89" length="12.20" shape="3106.06,310.70 3105.68,314.30 3104.49,316.58 3102.92,318.82 3101.40,322.28"/>
        <lane id=":gneJ12_0_1" index="1" speed="13.89" length="12.20" shape="3102.86,310.82 3102.48,314.11 3101.30,316.18 3099.77,318.20 3098.34,321.36"/>
    </edge>
    <edge id=":gneJ12_2" function="internal">
        <lane id=":gneJ12_2_0" index="0" speed="13.89" length="9.58" shape="3092.21,319.53 3092.90,317.11 3093.25,315.42 3093.34,313.69 3093.27,311.18"/>
        <lane id=":gneJ12_2_1" index="1" speed="13.89" length="9.58" shape="3095.27,320.44 3096.06,317.73 3096.45,315.82 3096.55,313.88 3096.47,311.06"/>
        <lane id=":gneJ12_2_2" index="2" speed="13.89" length="9.58" shape="3095.27,320.44 3096.62,317.58 3098.11,315.77 3099.27,313.93 3099.66,310.94"/>
    </edge>
    <edge id=":gneJ13_0" function="internal">
        <lane id=":gneJ13_0_0" index="0" speed="10.20" length="12.34" shape="3048.82,498.05 3047.01,499.03 3043.24,500.26 3039.34,501.38 3037.16,502.00"/>
    </edge>
    <edge id=":gneJ13_1" function="internal">
        <lane id=":gneJ13_1_0" index="0" speed="9.25" length="10.05" shape="3045.75,497.13 3044.98,498.22 3043.29,499.39 3040.69,500.65 3037.16,502.00"/>
    </edge>
    <edge id=":gneJ13_2" function="internal">
        <lane id=":gneJ13_2_0" index="0" speed="6.86" length="5.29" shape="3036.10,498.98 3037.33,498.40 3038.33,497.59 3039.09,496.56 3039.62,495.30"/>
    </edge>
    <edge id=":gneJ13_3" function="internal">
        <lane id=":gneJ13_3_0" index="0" speed="7.90" length="7.19" shape="3036.10,498.98 3037.49,498.54 3039.64,497.83 3041.67,497.01 3042.68,496.22"/>
    </edge>
    <edge id=":gneJ14_0" function="internal">
        <lane id=":gneJ14_0_0" index="0" speed="13.89" length="14.71" shape="2625.27,646.21 2623.34,649.06 2623.08,653.80 2622.18,658.44 2618.36,660.99"/>
        <lane id=":gneJ14_0_1" index="1" speed="13.89" length="14.71" shape="2625.27,646.21 2623.09,648.59 2622.38,652.28 2621.28,655.84 2617.92,657.82"/>
        <lane id=":gneJ14_0_2" index="2" speed="13.89" length="14.71" shape="2625.27,646.21 2622.87,648.12 2621.74,650.76 2620.44,653.23 2617.48,654.65"/>
    </edge>
    <edge id=":gneJ14_3" function="internal">
        <lane id=":gneJ14_3_0" index="0" speed="13.89" length="9.73" shape="2616.17,645.14 2618.61,644.79 2620.27,644.47 2621.89,644.00 2624.22,643.19"/>
        <lane id=":gneJ14_3_1" index="1" speed="13.89" length="9.73" shape="2616.61,648.31 2619.10,647.46 2620.49,646.08 2621.84,644.54 2624.22,643.19"/>
        <lane id=":gneJ14_3_2" index="2" speed="13.89" length="9.73" shape="2617.05,651.48 2619.79,650.10 2620.90,647.67 2621.87,645.08 2624.22,643.19"/>
    </edge>
    <edge id=":gneJ15_0" function="internal">
        <lane id=":gneJ15_0_0" index="0" speed="13.89" length="18.77" shape="2080.63,735.24 2061.85,737.37"/>
        <lane id=":gneJ15_0_1" index="1" speed="13.89" length="18.77" shape="2080.19,732.07 2061.54,734.18"/>
        <lane id=":gneJ15_0_2" index="2" speed="13.89" length="18.77" shape="2079.76,728.90 2061.24,731.00"/>
    </edge>
    <edge id=":gneJ15_3" function="internal">
        <lane id=":gneJ15_3_0" index="0" speed="11.29" length="5.47" shape="2079.76,728.90 2075.49,728.49 2074.48,727.89"/>
    </edge>
    <edge id=":gneJ15_11" function="internal">
        <lane id=":gneJ15_11_0" index="0" speed="11.29" length="16.89" shape="2074.48,727.89 2071.42,726.07 2067.54,721.63 2063.86,715.17"/>
    </edge>
    <edge id=":gneJ15_4" function="internal">
        <lane id=":gneJ15_4_0" index="0" speed="8.41" length="12.03" shape="2069.63,712.40 2071.56,715.72 2073.68,718.00 2075.97,719.22 2078.44,719.39"/>
    </edge>
    <edge id=":gneJ15_5" function="internal">
        <lane id=":gneJ15_5_0" index="0" speed="9.55" length="5.48" shape="2066.74,713.78 2068.76,718.88"/>
    </edge>
    <edge id=":gneJ15_6" function="internal">
        <lane id=":gneJ15_6_0" index="0" speed="8.89" length="5.43" shape="2066.74,713.78 2068.57,718.90"/>
    </edge>
    <edge id=":gneJ15_12" function="internal">
        <lane id=":gneJ15_12_0" index="0" speed="9.55" length="20.76" shape="2068.76,718.88 2069.70,721.26 2070.41,727.52 2067.98,732.01 2061.54,734.18"/>
    </edge>
    <edge id=":gneJ15_13" function="internal">
        <lane id=":gneJ15_13_0" index="0" speed="8.89" length="17.11" shape="2068.57,718.90 2069.27,720.84 2069.20,726.06 2066.52,729.45 2061.24,731.00"/>
    </edge>
    <edge id=":gneJ15_7" function="internal">
        <lane id=":gneJ15_7_0" index="0" speed="5.88" length="9.11" shape="2060.32,721.44 2062.89,720.82 2064.33,719.57 2064.66,717.69 2063.86,715.17"/>
    </edge>
    <edge id=":gneJ15_8" function="internal">
        <lane id=":gneJ15_8_0" index="0" speed="13.89" length="18.37" shape="2060.32,721.44 2078.44,719.39"/>
        <lane id=":gneJ15_8_1" index="1" speed="13.89" length="18.37" shape="2060.62,724.63 2078.88,722.56"/>
        <lane id=":gneJ15_8_2" index="2" speed="13.89" length="18.37" shape="2060.93,727.81 2079.32,725.73"/>
    </edge>
    <edge id=":gneJ17_0" function="internal">
        <lane id=":gneJ17_0_0" index="0" speed="13.89" length="19.03" shape="1011.07,807.12 1005.38,807.39 1001.49,807.57 997.59,807.57 991.90,807.31"/>
        <lane id=":gneJ17_0_1" index="1" speed="13.89" length="19.03" shape="1010.94,803.92 1005.34,804.19 1001.51,804.36 997.68,804.37 992.09,804.12"/>
    </edge>
    <edge id=":gneJ17_2" function="internal">
        <lane id=":gneJ17_2_0" index="0" speed="5.92" length="9.10" shape="1006.21,791.80 1005.83,794.40 1006.45,796.22 1008.06,797.26 1010.68,797.53"/>
    </edge>
    <edge id=":gneJ17_3" function="internal">
        <lane id=":gneJ17_3_0" index="0" speed="9.92" length="5.82" shape="1003.14,790.90 1001.12,796.36"/>
    </edge>
    <edge id=":gneJ17_7" function="internal">
        <lane id=":gneJ17_7_0" index="0" speed="9.92" length="12.64" shape="1001.12,796.36 1000.95,796.83 998.37,801.01 995.42,803.44 992.09,804.12"/>
    </edge>
    <edge id=":gneJ17_4" function="internal">
        <lane id=":gneJ17_4_0" index="0" speed="8.01" length="11.75" shape="992.45,797.73 994.90,797.36 996.98,795.95 998.71,793.49 1000.07,790.00"/>
    </edge>
    <edge id=":gneJ17_5" function="internal">
        <lane id=":gneJ17_5_0" index="0" speed="13.89" length="18.40" shape="992.45,797.73 997.86,797.97 1001.56,797.96 1005.27,797.79 1010.68,797.53"/>
        <lane id=":gneJ17_5_1" index="1" speed="13.89" length="18.40" shape="992.27,800.92 997.77,801.17 1001.54,801.16 1005.31,800.99 1010.81,800.72"/>
    </edge>
    <edge id=":gneJ20_0" function="internal">
        <lane id=":gneJ20_0_0" index="0" speed="13.89" length="15.78" shape="-134.11,167.59 -134.73,164.14 -135.82,160.82 -136.73,156.95 -136.79,151.83"/>
        <lane id=":gneJ20_0_1" index="1" speed="13.89" length="15.78" shape="-134.11,167.59 -134.22,164.15 -134.22,160.88 -134.03,157.10 -133.60,152.15"/>
    </edge>
    <edge id=":gneJ20_2" function="internal">
        <lane id=":gneJ20_2_0" index="0" speed="8.72" length="5.35" shape="-134.11,167.59 -133.49,163.69 -132.62,162.59"/>
    </edge>
    <edge id=":gneJ20_7" function="internal">
        <lane id=":gneJ20_7_0" index="0" speed="8.72" length="11.89" shape="-132.62,162.59 -131.26,160.86 -127.43,159.11 -122.00,158.42"/>
    </edge>
    <edge id=":gneJ20_3" function="internal">
        <lane id=":gneJ20_3_0" index="0" speed="7.38" length="12.06" shape="-121.92,161.62 -125.94,162.07 -128.78,163.19 -130.44,164.99 -130.92,167.46"/>
    </edge>
    <edge id=":gneJ20_4" function="internal">
        <lane id=":gneJ20_4_0" index="0" speed="8.48" length="5.84" shape="-121.92,161.62 -127.40,161.14 -127.71,161.00"/>
    </edge>
    <edge id=":gneJ20_8" function="internal">
        <lane id=":gneJ20_8_0" index="0" speed="8.48" length="11.72" shape="-127.71,161.00 -131.17,159.40 -133.24,156.41 -133.60,152.15"/>
    </edge>
    <edge id=":gneJ20_5" function="internal">
        <lane id=":gneJ20_5_0" index="0" speed="6.26" length="9.05" shape="-127.23,152.78 -127.12,155.30 -126.21,157.08 -124.50,158.12 -122.00,158.42"/>
    </edge>
    <edge id=":gneJ20_6" function="internal">
        <lane id=":gneJ20_6_0" index="0" speed="13.89" length="15.02" shape="-130.42,152.46 -130.84,157.25 -131.02,160.89 -131.03,164.06 -130.92,167.46"/>
    </edge>
    <edge id=":gneJ21_0" function="internal">
        <lane id=":gneJ21_0_0" index="0" speed="7.23" length="2.87" shape="453.62,269.57 452.80,269.79 452.21,269.85 451.63,269.76 450.82,269.52"/>
    </edge>
    <edge id=":gneJ21_1" function="internal">
        <lane id=":gneJ21_1_0" index="0" speed="13.89" length="0.96" shape="451.81,266.48 452.08,266.56 452.27,266.59 452.47,266.57 452.74,266.49"/>
    </edge>
    <edge id=":gneJ22_0" function="internal">
        <lane id=":gneJ22_0_0" index="0" speed="7.46" length="12.15" shape="920.02,143.10 918.73,140.60 916.62,139.14 913.68,138.75 909.93,139.41"/>
    </edge>
    <edge id=":gneJ22_1" function="internal">
        <lane id=":gneJ22_1_0" index="0" speed="13.89" length="14.87" shape="920.02,143.10 916.25,128.72"/>
    </edge>
    <edge id=":gneJ22_2" function="internal">
        <lane id=":gneJ22_2_0" index="0" speed="8.07" length="8.11" shape="920.02,143.10 919.56,138.89 920.93,135.75 921.30,135.51"/>
    </edge>
    <edge id=":gneJ22_12" function="internal">
        <lane id=":gneJ22_12_0" index="0" speed="8.07" length="8.54" shape="921.30,135.51 924.14,133.66 929.18,132.62"/>
    </edge>
    <edge id=":gneJ22_3" function="internal">
        <lane id=":gneJ22_3_0" index="0" speed="6.59" length="10.71" shape="929.45,135.81 926.05,136.47 923.85,137.75 922.87,139.66 923.10,142.21"/>
    </edge>
    <edge id=":gneJ22_4" function="internal">
        <lane id=":gneJ22_4_0" index="0" speed="13.89" length="19.86" shape="929.45,135.81 924.98,136.36 919.63,137.25 914.31,138.32 909.93,139.41"/>
    </edge>
    <edge id=":gneJ22_5" function="internal">
        <lane id=":gneJ22_5_0" index="0" speed="9.07" length="16.52" shape="929.45,135.81 924.37,135.73 920.47,134.52 917.76,132.18 916.25,128.72"/>
    </edge>
    <edge id=":gneJ22_6" function="internal">
        <lane id=":gneJ22_6_0" index="0" speed="7.01" length="9.49" shape="922.48,127.29 923.40,129.79 924.82,131.52 926.75,132.46 929.18,132.62"/>
    </edge>
    <edge id=":gneJ22_7" function="internal">
        <lane id=":gneJ22_7_0" index="0" speed="13.89" length="15.00" shape="922.48,127.29 923.09,132.01 922.89,135.67 922.65,138.87 923.10,142.21"/>
    </edge>
    <edge id=":gneJ22_8" function="internal">
        <lane id=":gneJ22_8_0" index="0" speed="8.77" length="4.93" shape="919.36,128.00 919.48,131.78 918.98,132.82"/>
    </edge>
    <edge id=":gneJ22_13" function="internal">
        <lane id=":gneJ22_13_0" index="0" speed="8.77" length="11.63" shape="918.98,132.82 917.95,134.94 914.76,137.48 909.93,139.41"/>
    </edge>
    <edge id=":gneJ22_9" function="internal">
        <lane id=":gneJ22_9_0" index="0" speed="6.63" length="9.03" shape="909.06,136.33 911.30,135.33 912.73,133.85 913.34,131.88 913.13,129.44"/>
    </edge>
    <edge id=":gneJ22_10" function="internal">
        <lane id=":gneJ22_10_0" index="0" speed="13.89" length="20.48" shape="909.06,136.33 913.53,135.23 919.05,134.12 924.61,133.19 929.18,132.62"/>
    </edge>
    <edge id=":gneJ22_11" function="internal">
        <lane id=":gneJ22_11_0" index="0" speed="8.79" length="17.27" shape="909.06,136.33 914.20,135.48 918.26,136.17 921.22,138.42 923.10,142.21"/>
    </edge>
    <edge id=":gneJ23_0" function="internal">
        <lane id=":gneJ23_0_0" index="0" speed="11.78" length="6.62" shape="1057.12,601.63 1058.17,603.61 1059.41,604.87 1060.28,606.13 1060.19,608.11"/>
        <lane id=":gneJ23_0_1" index="1" speed="10.32" length="6.62" shape="1057.12,601.63 1057.56,603.26 1057.71,604.42 1057.56,605.59 1057.12,607.21"/>
    </edge>
    <edge id=":gneJ23_2" function="internal">
        <lane id=":gneJ23_2_0" index="0" speed="8.58" length="3.87" shape="1054.05,606.31 1054.35,605.21 1054.45,604.42 1054.35,603.63 1054.05,602.53"/>
    </edge>
    <edge id=":gneJ25_0" function="internal">
        <lane id=":gneJ25_0_0" index="0" speed="8.52" length="10.77" shape="1385.77,126.59 1384.20,123.75 1382.37,121.71 1380.29,120.47 1377.96,120.03"/>
    </edge>
    <edge id=":gneJ25_1" function="internal">
        <lane id=":gneJ25_1_0" index="0" speed="9.26" length="18.99" shape="1388.69,125.28 1387.26,120.30 1387.74,116.01 1390.14,112.43 1394.45,109.55"/>
    </edge>
    <edge id=":gneJ25_2" function="internal">
        <lane id=":gneJ25_2_0" index="0" speed="6.51" length="8.86" shape="1397.22,115.32 1395.21,116.67 1394.09,118.34 1393.86,120.34 1394.53,122.66"/>
    </edge>
    <edge id=":gneJ25_3" function="internal">
        <lane id=":gneJ25_3_0" index="0" speed="13.89" length="19.40" shape="1397.22,115.32 1391.83,117.89 1387.96,119.35 1383.90,119.98 1377.96,120.03"/>
        <lane id=":gneJ25_3_1" index="1" speed="13.89" length="19.40" shape="1395.83,112.44 1390.85,114.82 1387.27,116.19 1383.51,116.77 1378.03,116.83"/>
    </edge>
    <edge id=":gneJ25_5" function="internal">
        <lane id=":gneJ25_5_0" index="0" speed="13.89" length="16.39" shape="1378.15,110.43 1382.75,110.37 1385.89,109.85 1388.89,108.68 1393.07,106.67"/>
        <lane id=":gneJ25_5_1" index="1" speed="13.89" length="16.39" shape="1378.09,113.63 1383.13,113.57 1386.58,113.02 1389.87,111.75 1394.45,109.55"/>
    </edge>
    <edge id=":gneJ25_7" function="internal">
        <lane id=":gneJ25_7_0" index="0" speed="10.89" length="5.92" shape="1378.09,113.63 1382.30,114.34 1383.75,115.12"/>
    </edge>
    <edge id=":gneJ25_8" function="internal">
        <lane id=":gneJ25_8_0" index="0" speed="10.89" length="12.11" shape="1383.75,115.12 1385.95,116.30 1389.06,119.51 1391.61,123.97"/>
    </edge>
    <edge id=":gneJ26_0" function="internal">
        <lane id=":gneJ26_0_0" index="0" speed="10.59" length="11.82" shape="1540.78,449.40 1535.58,447.95 1531.94,447.09 1529.87,446.83 1529.37,447.16"/>
    </edge>
    <edge id=":gneJ26_1" function="internal">
        <lane id=":gneJ26_1_0" index="0" speed="9.43" length="9.28" shape="1540.78,449.40 1537.27,448.31 1534.69,447.35 1533.03,446.53 1532.29,445.85"/>
    </edge>
    <edge id=":gneJ26_2" function="internal">
        <lane id=":gneJ26_2_0" index="0" speed="6.97" length="4.85" shape="1538.13,443.24 1538.75,444.32 1539.55,445.19 1540.52,445.86 1541.68,446.32"/>
    </edge>
    <edge id=":gneJ26_3" function="internal">
        <lane id=":gneJ26_3_0" index="0" speed="8.12" length="6.76" shape="1535.21,444.55 1536.26,445.17 1538.24,445.67 1540.32,446.06 1541.68,446.32"/>
    </edge>
    <edge id=":gneJ27_0" function="internal">
        <lane id=":gneJ27_0_0" index="0" speed="7.01" length="4.70" shape="2001.72,585.85 2001.10,584.82 2000.31,583.98 1999.36,583.34 1998.24,582.90"/>
    </edge>
    <edge id=":gneJ27_1" function="internal">
        <lane id=":gneJ27_1_0" index="0" speed="9.50" length="9.02" shape="1999.14,579.82 2002.62,580.89 2005.17,581.79 2006.79,582.52 2007.49,583.08"/>
    </edge>
    <edge id=":gneJ27_2" function="internal">
        <lane id=":gneJ27_2_0" index="0" speed="8.65" length="7.39" shape="1999.14,579.82 2000.89,580.53 2002.39,581.53 2003.62,582.84 2004.60,584.46"/>
    </edge>
    <edge id=":gneJ3_0" function="internal">
        <lane id=":gneJ3_0_0" index="0" speed="9.36" length="18.36" shape="-104.05,745.15 -107.31,744.06 -109.72,741.23 -111.27,736.65 -111.98,730.32"/>
    </edge>
    <edge id=":gneJ3_1" function="internal">
        <lane id=":gneJ3_1_0" index="0" speed="8.70" length="15.72" shape="-103.87,741.95 -107.25,741.06 -109.73,738.82 -111.31,735.24 -111.98,730.32"/>
    </edge>
    <edge id=":gneJ3_2" function="internal">
        <lane id=":gneJ3_2_0" index="0" speed="6.52" length="8.42" shape="-108.78,730.19 -108.38,732.43 -107.37,734.07 -105.74,735.12 -103.51,735.56"/>
    </edge>
    <edge id=":gneJ3_3" function="internal">
        <lane id=":gneJ3_3_0" index="0" speed="7.35" length="10.96" shape="-108.78,730.19 -108.34,733.84 -107.35,736.48 -105.80,738.12 -103.69,738.76"/>
    </edge>
    <edge id=":gneJ33_0" function="internal">
        <lane id=":gneJ33_0_0" index="0" speed="7.04" length="4.63" shape="-12.65,-919.85 -13.62,-919.18 -14.39,-918.36 -14.97,-917.39 -15.36,-916.27"/>
    </edge>
    <edge id=":gneJ33_1" function="internal">
        <lane id=":gneJ33_1_0" index="0" speed="8.25" length="6.54" shape="-12.65,-919.85 -13.89,-919.34 -15.80,-918.61 -17.58,-917.79 -18.47,-917.01"/>
    </edge>
    <edge id=":gneJ33_2" function="internal">
        <lane id=":gneJ33_2_0" index="0" speed="10.90" length="11.75" shape="-24.70,-918.49 -24.22,-918.00 -22.31,-918.53 -18.98,-920.08 -14.21,-922.65"/>
    </edge>
    <edge id=":gneJ33_3" function="internal">
        <lane id=":gneJ33_3_0" index="0" speed="9.54" length="8.89" shape="-21.58,-917.75 -20.46,-918.85 -18.14,-920.38 -15.70,-921.81 -14.21,-922.65"/>
    </edge>
    <edge id=":gneJ34_0" function="internal">
        <lane id=":gneJ34_0_0" index="0" speed="8.10" length="11.16" shape="204.42,-1003.30 202.23,-1002.21 200.62,-1000.35 199.61,-997.72 199.19,-994.31"/>
    </edge>
    <edge id=":gneJ34_1" function="internal">
        <lane id=":gneJ34_1_0" index="0" speed="13.89" length="14.97" shape="204.42,-1003.30 190.22,-998.56"/>
    </edge>
    <edge id=":gneJ34_2" function="internal">
        <lane id=":gneJ34_2_0" index="0" speed="13.89" length="15.83" shape="189.10,-1001.56 192.14,-1003.24 194.82,-1005.37 198.04,-1007.58 202.70,-1009.46"/>
    </edge>
    <edge id=":gneJ34_3" function="internal">
        <lane id=":gneJ34_3_0" index="0" speed="7.49" length="6.68" shape="189.10,-1001.56 193.65,-1002.57 195.59,-1002.04"/>
    </edge>
    <edge id=":gneJ34_6" function="internal">
        <lane id=":gneJ34_6_0" index="0" speed="7.49" length="9.28" shape="195.59,-1002.04 196.85,-1001.70 198.70,-998.94 199.19,-994.31"/>
    </edge>
    <edge id=":gneJ34_4" function="internal">
        <lane id=":gneJ34_4_0" index="0" speed="5.83" length="9.13" shape="195.99,-994.41 195.71,-997.07 194.65,-998.64 192.82,-999.14 190.22,-998.56"/>
    </edge>
    <edge id=":gneJ34_5" function="internal">
        <lane id=":gneJ34_5_0" index="0" speed="9.38" length="4.66" shape="195.99,-994.41 196.59,-998.89 196.64,-999.02"/>
    </edge>
    <edge id=":gneJ34_7" function="internal">
        <lane id=":gneJ34_7_0" index="0" speed="9.38" length="10.58" shape="196.64,-999.02 198.05,-1002.38 200.37,-1004.87 203.56,-1006.38"/>
    </edge>
    <edge id=":gneJ35_0" function="internal">
        <lane id=":gneJ35_0_0" index="0" speed="13.89" length="14.20" shape="197.71,-780.90 183.55,-781.22"/>
        <lane id=":gneJ35_0_1" index="1" speed="13.89" length="14.20" shape="197.82,-784.09 183.58,-784.42"/>
    </edge>
    <edge id=":gneJ35_2" function="internal">
        <lane id=":gneJ35_2_0" index="0" speed="8.67" length="5.16" shape="197.82,-784.09 194.01,-784.98 193.08,-785.80"/>
    </edge>
    <edge id=":gneJ35_7" function="internal">
        <lane id=":gneJ35_7_0" index="0" speed="8.67" length="11.66" shape="193.08,-785.80 191.35,-787.32 189.83,-791.12 189.45,-796.38"/>
    </edge>
    <edge id=":gneJ35_3" function="internal">
        <lane id=":gneJ35_3_0" index="0" speed="6.51" length="9.01" shape="192.65,-796.27 192.92,-793.82 193.91,-792.04 195.62,-790.93 198.05,-790.49"/>
    </edge>
    <edge id=":gneJ35_4" function="internal">
        <lane id=":gneJ35_4_0" index="0" speed="8.74" length="5.72" shape="192.65,-796.27 191.94,-791.05 191.74,-790.64"/>
    </edge>
    <edge id=":gneJ35_8" function="internal">
        <lane id=":gneJ35_8_0" index="0" speed="8.74" length="11.09" shape="191.74,-790.64 190.19,-787.34 187.40,-785.13 183.58,-784.42"/>
    </edge>
    <edge id=":gneJ35_5" function="internal">
        <lane id=":gneJ35_5_0" index="0" speed="7.40" length="11.78" shape="183.61,-787.62 186.06,-788.14 187.85,-789.78 188.98,-792.52 189.45,-796.38"/>
    </edge>
    <edge id=":gneJ35_6" function="internal">
        <lane id=":gneJ35_6_0" index="0" speed="13.89" length="14.33" shape="183.61,-787.62 197.93,-787.29"/>
    </edge>
    <edge id=":gneJ36_0" function="internal">
        <lane id=":gneJ36_0_0" index="0" speed="6.30" length="9.04" shape="897.43,-751.93 894.92,-751.82 893.12,-750.93 892.04,-749.23 891.68,-746.75"/>
    </edge>
    <edge id=":gneJ36_1" function="internal">
        <lane id=":gneJ36_1_0" index="0" speed="13.89" length="21.57" shape="897.43,-751.93 891.08,-753.07 886.75,-754.54 882.54,-755.88 876.56,-756.61"/>
        <lane id=":gneJ36_1_1" index="1" speed="13.89" length="21.57" shape="897.75,-755.11 891.33,-756.26 886.93,-757.73 882.67,-759.07 876.67,-759.81"/>
    </edge>
    <edge id=":gneJ36_3" function="internal">
        <lane id=":gneJ36_3_0" index="0" speed="9.90" length="4.92" shape="898.07,-758.30 893.29,-759.42"/>
    </edge>
    <edge id=":gneJ36_15" function="internal">
        <lane id=":gneJ36_15_0" index="0" speed="9.90" length="15.63" shape="893.29,-759.42 892.49,-759.61 888.50,-762.26 886.10,-766.24 885.30,-771.56"/>
    </edge>
    <edge id=":gneJ36_4" function="internal">
        <lane id=":gneJ36_4_0" index="0" speed="7.38" length="10.98" shape="891.70,-771.57 892.14,-768.81 893.46,-766.75 895.65,-765.36 898.72,-764.66"/>
    </edge>
    <edge id=":gneJ36_5" function="internal">
        <lane id=":gneJ36_5_0" index="0" speed="13.89" length="24.82" shape="891.70,-771.57 891.68,-746.75"/>
        <lane id=":gneJ36_5_1" index="1" speed="13.89" length="24.82" shape="888.50,-771.56 888.48,-746.75"/>
    </edge>
    <edge id=":gneJ36_7" function="internal">
        <lane id=":gneJ36_7_0" index="0" speed="9.10" length="4.58" shape="888.50,-771.56 887.87,-767.03"/>
    </edge>
    <edge id=":gneJ36_16" function="internal">
        <lane id=":gneJ36_16_0" index="0" speed="9.10" length="14.61" shape="887.87,-767.03 887.76,-766.26 885.55,-762.53 881.85,-760.38 876.67,-759.81"/>
    </edge>
    <edge id=":gneJ36_8" function="internal">
        <lane id=":gneJ36_8_0" index="0" speed="7.12" length="11.32" shape="876.90,-766.20 880.58,-766.42 883.20,-767.39 884.78,-769.10 885.30,-771.56"/>
    </edge>
    <edge id=":gneJ36_9" function="internal">
        <lane id=":gneJ36_9_0" index="0" speed="13.89" length="21.77" shape="876.90,-766.20 898.72,-764.66"/>
        <lane id=":gneJ36_9_1" index="1" speed="13.89" length="21.77" shape="876.78,-763.00 898.40,-761.48"/>
    </edge>
    <edge id=":gneJ36_11" function="internal">
        <lane id=":gneJ36_11_0" index="0" speed="10.08" length="4.71" shape="876.78,-763.00 881.37,-761.95"/>
    </edge>
    <edge id=":gneJ36_17" function="internal">
        <lane id=":gneJ36_17_0" index="0" speed="10.08" length="17.82" shape="881.37,-761.95 881.91,-761.83 885.57,-758.73 887.76,-753.71 888.48,-746.75"/>
    </edge>
    <edge id=":gneJ36_12" function="internal">
        <lane id=":gneJ36_12_0" index="0" speed="7.64" length="12.53" shape="882.08,-746.77 881.74,-751.00 880.71,-754.05 878.98,-755.92 876.56,-756.61"/>
    </edge>
    <edge id=":gneJ36_13" function="internal">
        <lane id=":gneJ36_13_0" index="0" speed="13.89" length="25.03" shape="882.08,-746.77 882.59,-754.16 883.70,-761.04 884.80,-766.98 885.30,-771.56"/>
    </edge>
    <edge id=":gneJ36_14" function="internal">
        <lane id=":gneJ36_14_0" index="0" speed="9.70" length="6.37" shape="885.28,-746.76 886.04,-753.09"/>
    </edge>
    <edge id=":gneJ36_18" function="internal">
        <lane id=":gneJ36_18_0" index="0" speed="9.70" length="16.57" shape="886.04,-753.09 886.11,-753.70 888.58,-758.47 892.67,-761.06 898.40,-761.48"/>
    </edge>
    <edge id=":gneJ40_0" function="internal">
        <lane id=":gneJ40_0_0" index="0" speed="11.55" length="17.42" shape="1204.06,124.41 1200.10,119.63 1196.57,116.27 1193.49,114.34 1190.84,113.83"/>
    </edge>
    <edge id=":gneJ40_1" function="internal">
        <lane id=":gneJ40_1_0" index="0" speed="8.15" length="22.30" shape="1204.06,124.41 1200.32,118.17 1200.00,113.75 1203.10,111.16 1209.61,110.40"/>
    </edge>
    <edge id=":gneJ40_2" function="internal">
        <lane id=":gneJ40_2_0" index="0" speed="5.54" length="9.45" shape="1209.49,116.80 1206.57,117.10 1205.11,118.15 1205.13,119.94 1206.60,122.48"/>
    </edge>
    <edge id=":gneJ40_3" function="internal">
        <lane id=":gneJ40_3_0" index="0" speed="13.89" length="18.72" shape="1209.55,113.60 1203.38,113.50 1198.55,113.49 1194.55,113.59 1190.84,113.83"/>
    </edge>
    <edge id=":gneJ40_4" function="internal">
        <lane id=":gneJ40_4_0" index="0" speed="13.89" length="19.48" shape="1190.57,110.64 1194.29,109.90 1198.35,108.69 1203.29,107.60 1209.67,107.20"/>
    </edge>
    <edge id=":gneJ40_5" function="internal">
        <lane id=":gneJ40_5_0" index="0" speed="12.52" length="5.15" shape="1190.57,110.64 1194.05,111.17 1195.47,111.97"/>
    </edge>