<?xml version="1.0" encoding="UTF-8"?>

<!-- generated on 2023-03-01 19:56:37 by Eclipse SUMO duarouter Version 1.15.0
<configuration xmlns:xsi="http://www.w3.org/2001/XMLSchema-instance" xsi:noNamespaceSchemaLocation="http://sumo.dlr.de/xsd/duarouterConfiguration.xsd">

    <input>
        <net-file value="5x5_TLS.net.xml"/>
        <route-files value="TLS_changing_props/flows/5x5_no_left_turns_30_70.flow.xml"/>
    </input>

    <output>
        <output-file value="TLS_changing_props/routes/5x5_TLS_30_70.rou.xml"/>
    </output>

</configuration>
-->

<routes xmlns:xsi="http://www.w3.org/2001/XMLSchema-instance" xsi:noNamespaceSchemaLocation="http://sumo.dlr.de/xsd/routes_file.xsd">
    <vehicle id="bottom0_right4.0" depart="0.00" color="red">
        <route edges="bottom0A0 A0A1 A1A2 A2A3 A3A4 A4B4 B4C4 C4D4 D4E4 E4right4"/>
    </vehicle>
    <vehicle id="bottom1_right3.0" depart="0.00" color="150,0,0">
        <route edges="bottom1B0 B0B1 B1B2 B2B3 B3C3 C3D3 D3E3 E3right3"/>
    </vehicle>
    <vehicle id="left1_right1.0" depart="0.00" color="150,150,150">
        <route edges="left1A1 A1B1 B1C1 C1D1 D1E1 E1right1"/>
    </vehicle>
    <vehicle id="left3_bottom3.0" depart="0.00" color="0,0,150">
        <route edges="left3A3 A3B3 B3C3 C3D3 D3D2 D2D1 D1D0 D0bottom3"/>
    </vehicle>
    <vehicle id="left4_bottom4.0" depart="0.00" color="green">
        <route edges="left4A4 A4B4 B4C4 C4D4 D4E4 E4E3 E3E2 E2E1 E1E0 E0bottom4"/>
    </vehicle>
    <vehicle id="nl_bottom2_top2.0" depart="0.00" color="white">
        <route edges="bottom2C0 C0C1 C1C2 C2C3 C3C4 C4top2"/>
    </vehicle>
    <vehicle id="nl_bottom3_top3.0" depart="0.00" color="150,150,150">
        <route edges="bottom3D0 D0D1 D1D2 D2D3 D3D4 D4top3"/>
    </vehicle>
    <vehicle id="nl_bottom4_top4.0" depart="0.00" color="0,150,150">
        <route edges="bottom4E0 E0E1 E1E2 E2E3 E3E4 E4top4"/>
    </vehicle>
    <vehicle id="nl_left0_right0.0" depart="0.00" color="0,150,150">
        <route edges="left0A0 A0B0 B0C0 C0D0 D0E0 E0right0"/>
    </vehicle>
    <vehicle id="nl_left2_right2.0" depart="0.00" color="white">
        <route edges="left2A2 A2B2 B2C2 C2D2 D2E2 E2right2"/>
    </vehicle>
    <vehicle id="nl_right2_left2.0" depart="0.00" color="white">
        <route edges="right2E2 E2D2 D2C2 C2B2 B2A2 A2left2"/>
    </vehicle>
    <vehicle id="nl_right4_left4.0" depart="0.00" color="0,150,150">
        <route edges="right4E4 E4D4 D4C4 C4B4 B4A4 A4left4"/>
    </vehicle>
    <vehicle id="nl_top0_bottom0.0" depart="0.00" color="0,150,150">
        <route edges="top0A4 A4A3 A3A2 A2A1 A1A0 A0bottom0"/>
    </vehicle>
    <vehicle id="nl_top1_bottom1.0" depart="0.00" color="150,150,150">
        <route edges="top1B4 B4B3 B3B2 B2B1 B1B0 B0bottom1"/>
    </vehicle>
    <vehicle id="nl_top2_bottom2.0" depart="0.00" color="white">
        <route edges="top2C4 C4C3 C3C2 C2C1 C1C0 C0bottom2"/>
    </vehicle>
    <vehicle id="right0_top0.0" depart="0.00" color="yellow">
        <route edges="right0E0 E0D0 D0C0 C0B0 B0A0 A0A1 A1A2 A2A3 A3A4 A4top0"/>
    </vehicle>
    <vehicle id="right1_top1.0" depart="0.00" color="150,150,0">
        <route edges="right1E1 E1D1 D1C1 C1B1 B1B2 B2B3 B3B4 B4top1"/>
    </vehicle>
    <vehicle id="right3_left3.0" depart="0.00" color="150,150,150">
        <route edges="right3E3 E3D3 D3C3 C3B3 B3A3 A3left3"/>
    </vehicle>
    <vehicle id="top3_left1.0" depart="0.00" color="0,150,0">
        <route edges="top3D4 D4D3 D3D2 D2D1 D1C1 C1B1 B1A1 A1left1"/>
    </vehicle>
    <vehicle id="top4_left0.0" depart="0.00" color="blue">
        <route edges="top4E4 E4E3 E3E2 E2E1 E1E0 E0D0 D0C0 C0B0 B0A0 A0left0"/>
    </vehicle>
    <vehicle id="nl_bottom2_top2.1" depart="4.29" color="white">
        <route edges="bottom2C0 C0C1 C1C2 C2C3 C3C4 C4top2"/>
    </vehicle>
    <vehicle id="nl_bottom3_top3.1" depart="4.29" color="150,150,150">
        <route edges="bottom3D0 D0D1 D1D2 D2D3 D3D4 D4top3"/>
    </vehicle>
    <vehicle id="nl_bottom4_top4.1" depart="4.29" color="0,150,150">
        <route edges="bottom4E0 E0E1 E1E2 E2E3 E3E4 E4top4"/>
    </vehicle>
    <vehicle id="nl_left0_right0.1" depart="4.29" color="0,150,150">
        <route edges="left0A0 A0B0 B0C0 C0D0 D0E0 E0right0"/>
    </vehicle>
    <vehicle id="nl_left2_right2.1" depart="4.29" color="white">
        <route edges="left2A2 A2B2 B2C2 C2D2 D2E2 E2right2"/>
    </vehicle>
    <vehicle id="nl_right2_left2.1" depart="4.29" color="white">
        <route edges="right2E2 E2D2 D2C2 C2B2 B2A2 A2left2"/>
    </vehicle>
    <vehicle id="nl_right4_left4.1" depart="4.29" color="0,150,150">
        <route edges="right4E4 E4D4 D4C4 C4B4 B4A4 A4left4"/>
    </vehicle>
    <vehicle id="nl_top0_bottom0.1" depart="4.29" color="0,150,150">
        <route edges="top0A4 A4A3 A3A2 A2A1 A1A0 A0bottom0"/>
    </vehicle>
    <vehicle id="nl_top1_bottom1.1" depart="4.29" color="150,150,150">
        <route edges="top1B4 B4B3 B3B2 B2B1 B1B0 B0bottom1"/>
    </vehicle>
    <vehicle id="nl_top2_bottom2.1" depart="4.29" color="white">
        <route edges="top2C4 C4C3 C3C2 C2C1 C1C0 C0bottom2"/>
    </vehicle>
    <vehicle id="nl_bottom2_top2.2" depart="8.57" color="white">
        <route edges="bottom2C0 C0C1 C1C2 C2C3 C3C4 C4top2"/>
    </vehicle>
    <vehicle id="nl_bottom3_top3.2" depart="8.57" color="150,150,150">
        <route edges="bottom3D0 D0D1 D1D2 D2D3 D3D4 D4top3"/>
    </vehicle>
    <vehicle id="nl_bottom4_top4.2" depart="8.57" color="0,150,150">
        <route edges="bottom4E0 E0E1 E1E2 E2E3 E3E4 E4top4"/>
    </vehicle>
    <vehicle id="nl_left0_right0.2" depart="8.57" color="0,150,150">
        <route edges="left0A0 A0B0 B0C0 C0D0 D0E0 E0right0"/>
    </vehicle>
    <vehicle id="nl_left2_right2.2" depart="8.57" color="white">
        <route edges="left2A2 A2B2 B2C2 C2D2 D2E2 E2right2"/>
    </vehicle>
    <vehicle id="nl_right2_left2.2" depart="8.57" color="white">
        <route edges="right2E2 E2D2 D2C2 C2B2 B2A2 A2left2"/>
    </vehicle>
    <vehicle id="nl_right4_left4.2" depart="8.57" color="0,150,150">
        <route edges="right4E4 E4D4 D4C4 C4B4 B4A4 A4left4"/>
    </vehicle>
    <vehicle id="nl_top0_bottom0.2" depart="8.57" color="0,150,150">
        <route edges="top0A4 A4A3 A3A2 A2A1 A1A0 A0bottom0"/>
    </vehicle>
    <vehicle id="nl_top1_bottom1.2" depart="8.57" color="150,150,150">
        <route edges="top1B4 B4B3 B3B2 B2B1 B1B0 B0bottom1"/>
    </vehicle>
    <vehicle id="nl_top2_bottom2.2" depart="8.57" color="white">
        <route edges="top2C4 C4C3 C3C2 C2C1 C1C0 C0bottom2"/>
    </vehicle>
    <vehicle id="bottom0_right4.1" depart="10.00" color="red">
        <route edges="bottom0A0 A0A1 A1A2 A2A3 A3A4 A4B4 B4C4 C4D4 D4E4 E4right4"/>
    </vehicle>
    <vehicle id="bottom1_right3.1" depart="10.00" color="150,0,0">
        <route edges="bottom1B0 B0B1 B1B2 B2B3 B3C3 C3D3 D3E3 E3right3"/>
    </vehicle>
    <vehicle id="left1_right1.1" depart="10.00" color="150,150,150">
        <route edges="left1A1 A1B1 B1C1 C1D1 D1E1 E1right1"/>
    </vehicle>
    <vehicle id="left3_bottom3.1" depart="10.00" color="0,0,150">
        <route edges="left3A3 A3B3 B3C3 C3D3 D3D2 D2D1 D1D0 D0bottom3"/>
    </vehicle>
    <vehicle id="left4_bottom4.1" depart="10.00" color="green">
        <route edges="left4A4 A4B4 B4C4 C4D4 D4E4 E4E3 E3E2 E2E1 E1E0 E0bottom4"/>
    </vehicle>
    <vehicle id="right0_top0.1" depart="10.00" color="yellow">
        <route edges="right0E0 E0D0 D0C0 C0B0 B0A0 A0A1 A1A2 A2A3 A3A4 A4top0"/>
    </vehicle>
    <vehicle id="right1_top1.1" depart="10.00" color="150,150,0">
        <route edges="right1E1 E1D1 D1C1 C1B1 B1B2 B2B3 B3B4 B4top1"/>
    </vehicle>
    <vehicle id="right3_left3.1" depart="10.00" color="150,150,150">
        <route edges="right3E3 E3D3 D3C3 C3B3 B3A3 A3left3"/>
    </vehicle>
    <vehicle id="top3_left1.1" depart="10.00" color="0,150,0">
        <route edges="top3D4 D4D3 D3D2 D2D1 D1C1 C1B1 B1A1 A1left1"/>
    </vehicle>
    <vehicle id="top4_left0.1" depart="10.00" color="blue">
        <route edges="top4E4 E4E3 E3E2 E2E1 E1E0 E0D0 D0C0 C0B0 B0A0 A0left0"/>
    </vehicle>
    <vehicle id="nl_bottom2_top2.3" depart="12.86" color="white">
        <route edges="bottom2C0 C0C1 C1C2 C2C3 C3C4 C4top2"/>
    </vehicle>
    <vehicle id="nl_bottom3_top3.3" depart="12.86" color="150,150,150">
        <route edges="bottom3D0 D0D1 D1D2 D2D3 D3D4 D4top3"/>
    </vehicle>
    <vehicle id="nl_bottom4_top4.3" depart="12.86" color="0,150,150">
        <route edges="bottom4E0 E0E1 E1E2 E2E3 E3E4 E4top4"/>
    </vehicle>
    <vehicle id="nl_left0_right0.3" depart="12.86" color="0,150,150">
        <route edges="left0A0 A0B0 B0C0 C0D0 D0E0 E0right0"/>
    </vehicle>
    <vehicle id="nl_left2_right2.3" depart="12.86" color="white">
        <route edges="left2A2 A2B2 B2C2 C2D2 D2E2 E2right2"/>
    </vehicle>
    <vehicle id="nl_right2_left2.3" depart="12.86" color="white">
        <route edges="right2E2 E2D2 D2C2 C2B2 B2A2 A2left2"/>
    </vehicle>
    <vehicle id="nl_right4_left4.3" depart="12.86" color="0,150,150">
        <route edges="right4E4 E4D4 D4C4 C4B4 B4A4 A4left4"/>
    </vehicle>
    <vehicle id="nl_top0_bottom0.3" depart="12.86" color="0,150,150">
        <route edges="top0A4 A4A3 A3A2 A2A1 A1A0 A0bottom0"/>
    </vehicle>
    <vehicle id="nl_top1_bottom1.3" depart="12.86" color="150,150,150">
        <route edges="top1B4 B4B3 B3B2 B2B1 B1B0 B0bottom1"/>
    </vehicle>
    <vehicle id="nl_top2_bottom2.3" depart="12.86" color="white">
        <route edges="top2C4 C4C3 C3C2 C2C1 C1C0 C0bottom2"/>
    </vehicle>
    <vehicle id="nl_bottom2_top2.4" depart="17.14" color="white">
        <route edges="bottom2C0 C0C1 C1C2 C2C3 C3C4 C4top2"/>
    </vehicle>
    <vehicle id="nl_bottom3_top3.4" depart="17.14" color="150,150,150">
        <route edges="bottom3D0 D0D1 D1D2 D2D3 D3D4 D4top3"/>
    </vehicle>
    <vehicle id="nl_bottom4_top4.4" depart="17.14" color="0,150,150">
        <route edges="bottom4E0 E0E1 E1E2 E2E3 E3E4 E4top4"/>
    </vehicle>
    <vehicle id="nl_left0_right0.4" depart="17.14" color="0,150,150">
        <route edges="left0A0 A0B0 B0C0 C0D0 D0E0 E0right0"/>
    </vehicle>
    <vehicle id="nl_left2_right2.4" depart="17.14" color="white">
        <route edges="left2A2 A2B2 B2C2 C2D2 D2E2 E2right2"/>
    </vehicle>
    <vehicle id="nl_right2_left2.4" depart="17.14" color="white">
        <route edges="right2E2 E2D2 D2C2 C2B2 B2A2 A2left2"/>
    </vehicle>
    <vehicle id="nl_right4_left4.4" depart="17.14" color="0,150,150">
        <route edges="right4E4 E4D4 D4C4 C4B4 B4A4 A4left4"/>
    </vehicle>
    <vehicle id="nl_top0_bottom0.4" depart="17.14" color="0,150,150">
        <route edges="top0A4 A4A3 A3A2 A2A1 A1A0 A0bottom0"/>
    </vehicle>
    <vehicle id="nl_top1_bottom1.4" depart="17.14" color="150,150,150">
        <route edges="top1B4 B4B3 B3B2 B2B1 B1B0 B0bottom1"/>
    </vehicle>
    <vehicle id="nl_top2_bottom2.4" depart="17.14" color="white">
        <route edges="top2C4 C4C3 C3C2 C2C1 C1C0 C0bottom2"/>
    </vehicle>
    <vehicle id="bottom0_right4.2" depart="20.00" color="red">
        <route edges="bottom0A0 A0A1 A1A2 A2A3 A3A4 A4B4 B4C4 C4D4 D4E4 E4right4"/>
    </vehicle>
    <vehicle id="bottom1_right3.2" depart="20.00" color="150,0,0">
        <route edges="bottom1B0 B0B1 B1B2 B2B3 B3C3 C3D3 D3E3 E3right3"/>
    </vehicle>
    <vehicle id="left1_right1.2" depart="20.00" color="150,150,150">
        <route edges="left1A1 A1B1 B1C1 C1D1 D1E1 E1right1"/>
    </vehicle>
    <vehicle id="left3_bottom3.2" depart="20.00" color="0,0,150">
        <route edges="left3A3 A3B3 B3C3 C3D3 D3D2 D2D1 D1D0 D0bottom3"/>
    </vehicle>
    <vehicle id="left4_bottom4.2" depart="20.00" color="green">
        <route edges="left4A4 A4B4 B4C4 C4D4 D4E4 E4E3 E3E2 E2E1 E1E0 E0bottom4"/>
    </vehicle>
    <vehicle id="right0_top0.2" depart="20.00" color="yellow">
        <route edges="right0E0 E0D0 D0C0 C0B0 B0A0 A0A1 A1A2 A2A3 A3A4 A4top0"/>
    </vehicle>
    <vehicle id="right1_top1.2" depart="20.00" color="150,150,0">
        <route edges="right1E1 E1D1 D1C1 C1B1 B1B2 B2B3 B3B4 B4top1"/>
    </vehicle>
    <vehicle id="right3_left3.2" depart="20.00" color="150,150,150">
        <route edges="right3E3 E3D3 D3C3 C3B3 B3A3 A3left3"/>
    </vehicle>
    <vehicle id="top3_left1.2" depart="20.00" color="0,150,0">
        <route edges="top3D4 D4D3 D3D2 D2D1 D1C1 C1B1 B1A1 A1left1"/>
    </vehicle>
    <vehicle id="top4_left0.2" depart="20.00" color="blue">
        <route edges="top4E4 E4E3 E3E2 E2E1 E1E0 E0D0 D0C0 C0B0 B0A0 A0left0"/>
    </vehicle>
    <vehicle id="nl_bottom2_top2.5" depart="21.43" color="white">
        <route edges="bottom2C0 C0C1 C1C2 C2C3 C3C4 C4top2"/>
    </vehicle>
    <vehicle id="nl_bottom3_top3.5" depart="21.43" color="150,150,150">
        <route edges="bottom3D0 D0D1 D1D2 D2D3 D3D4 D4top3"/>
    </vehicle>
    <vehicle id="nl_bottom4_top4.5" depart="21.43" color="0,150,150">
        <route edges="bottom4E0 E0E1 E1E2 E2E3 E3E4 E4top4"/>
    </vehicle>
    <vehicle id="nl_left0_right0.5" depart="21.43" color="0,150,150">
        <route edges="left0A0 A0B0 B0C0 C0D0 D0E0 E0right0"/>
    </vehicle>
    <vehicle id="nl_left2_right2.5" depart="21.43" color="white">
        <route edges="left2A2 A2B2 B2C2 C2D2 D2E2 E2right2"/>
    </vehicle>
    <vehicle id="nl_right2_left2.5" depart="21.43" color="white">
        <route edges="right2E2 E2D2 D2C2 C2B2 B2A2 A2left2"/>
    </vehicle>
    <vehicle id="nl_right4_left4.5" depart="21.43" color="0,150,150">
        <route edges="right4E4 E4D4 D4C4 C4B4 B4A4 A4left4"/>
    </vehicle>
    <vehicle id="nl_top0_bottom0.5" depart="21.43" color="0,150,150">
        <route edges="top0A4 A4A3 A3A2 A2A1 A1A0 A0bottom0"/>
    </vehicle>
    <vehicle id="nl_top1_bottom1.5" depart="21.43" color="150,150,150">
        <route edges="top1B4 B4B3 B3B2 B2B1 B1B0 B0bottom1"/>
    </vehicle>
    <vehicle id="nl_top2_bottom2.5" depart="21.43" color="white">
        <route edges="top2C4 C4C3 C3C2 C2C1 C1C0 C0bottom2"/>
    </vehicle>
    <vehicle id="nl_bottom2_top2.6" depart="25.71" color="white">
        <route edges="bottom2C0 C0C1 C1C2 C2C3 C3C4 C4top2"/>
    </vehicle>
    <vehicle id="nl_bottom3_top3.6" depart="25.71" color="150,150,150">
        <route edges="bottom3D0 D0D1 D1D2 D2D3 D3D4 D4top3"/>
    </vehicle>
    <vehicle id="nl_bottom4_top4.6" depart="25.71" color="0,150,150">
        <route edges="bottom4E0 E0E1 E1E2 E2E3 E3E4 E4top4"/>
    </vehicle>
    <vehicle id="nl_left0_right0.6" depart="25.71" color="0,150,150">
        <route edges="left0A0 A0B0 B0C0 C0D0 D0E0 E0right0"/>
    </vehicle>
    <vehicle id="nl_left2_right2.6" depart="25.71" color="white">
        <route edges="left2A2 A2B2 B2C2 C2D2 D2E2 E2right2"/>
    </vehicle>
    <vehicle id="nl_right2_left2.6" depart="25.71" color="white">
        <route edges="right2E2 E2D2 D2C2 C2B2 B2A2 A2left2"/>
    </vehicle>
    <vehicle id="nl_right4_left4.6" depart="25.71" color="0,150,150">
        <route edges="right4E4 E4D4 D4C4 C4B4 B4A4 A4left4"/>
    </vehicle>
    <vehicle id="nl_top0_bottom0.6" depart="25.71" color="0,150,150">
        <route edges="top0A4 A4A3 A3A2 A2A1 A1A0 A0bottom0"/>
    </vehicle>
    <vehicle id="nl_top1_bottom1.6" depart="25.71" color="150,150,150">
        <route edges="top1B4 B4B3 B3B2 B2B1 B1B0 B0bottom1"/>
    </vehicle>
    <vehicle id="nl_top2_bottom2.6" depart="25.71" color="white">
        <route edges="top2C4 C4C3 C3C2 C2C1 C1C0 C0bottom2"/>
    </vehicle>
    <vehicle id="nl_bottom2_top2.7" depart="30.00" color="white">
        <route edges="bottom2C0 C0C1 C1C2 C2C3 C3C4 C4top2"/>
    </vehicle>
    <vehicle id="nl_bottom3_top3.7" depart="30.00" color="150,150,150">
        <route edges="bottom3D0 D0D1 D1D2 D2D3 D3D4 D4top3"/>
    </vehicle>
    <vehicle id="nl_bottom4_top4.7" depart="30.00" color="0,150,150">
        <route edges="bottom4E0 E0E1 E1E2 E2E3 E3E4 E4top4"/>
    </vehicle>
    <vehicle id="nl_left0_right0.7" depart="30.00" color="0,150,150">
        <route edges="left0A0 A0B0 B0C0 C0D0 D0E0 E0right0"/>
    </vehicle>
    <vehicle id="nl_left2_right2.7" depart="30.00" color="white">
        <route edges="left2A2 A2B2 B2C2 C2D2 D2E2 E2right2"/>
    </vehicle>
    <vehicle id="nl_right2_left2.7" depart="30.00" color="white">
        <route edges="right2E2 E2D2 D2C2 C2B2 B2A2 A2left2"/>
    </vehicle>
    <vehicle id="nl_right4_left4.7" depart="30.00" color="0,150,150">
        <route edges="right4E4 E4D4 D4C4 C4B4 B4A4 A4left4"/>
    </vehicle>
    <vehicle id="nl_top0_bottom0.7" depart="30.00" color="0,150,150">
        <route edges="top0A4 A4A3 A3A2 A2A1 A1A0 A0bottom0"/>
    </vehicle>
    <vehicle id="nl_top1_bottom1.7" depart="30.00" color="150,150,150">
        <route edges="top1B4 B4B3 B3B2 B2B1 B1B0 B0bottom1"/>
    </vehicle>
    <vehicle id="nl_top2_bottom2.7" depart="30.00" color="white">
        <route edges="top2C4 C4C3 C3C2 C2C1 C1C0 C0bottom2"/>
    </vehicle>
    <vehicle id="bottom0_right4.3" depart="30.00" color="red">
        <route edges="bottom0A0 A0A1 A1A2 A2A3 A3A4 A4B4 B4C4 C4D4 D4E4 E4right4"/>
    </vehicle>
    <vehicle id="bottom1_right3.3" depart="30.00" color="150,0,0">
        <route edges="bottom1B0 B0B1 B1B2 B2B3 B3C3 C3D3 D3E3 E3right3"/>
    </vehicle>
    <vehicle id="left1_right1.3" depart="30.00" color="150,150,150">
        <route edges="left1A1 A1B1 B1C1 C1D1 D1E1 E1right1"/>
    </vehicle>
    <vehicle id="left3_bottom3.3" depart="30.00" color="0,0,150">
        <route edges="left3A3 A3B3 B3C3 C3D3 D3D2 D2D1 D1D0 D0bottom3"/>
    </vehicle>
    <vehicle id="left4_bottom4.3" depart="30.00" color="green">
        <route edges="left4A4 A4B4 B4C4 C4D4 D4E4 E4E3 E3E2 E2E1 E1E0 E0bottom4"/>
    </vehicle>
    <vehicle id="right0_top0.3" depart="30.00" color="yellow">
        <route edges="right0E0 E0D0 D0C0 C0B0 B0A0 A0A1 A1A2 A2A3 A3A4 A4top0"/>
    </vehicle>
    <vehicle id="right1_top1.3" depart="30.00" color="150,150,0">
        <route edges="right1E1 E1D1 D1C1 C1B1 B1B2 B2B3 B3B4 B4top1"/>
    </vehicle>
    <vehicle id="right3_left3.3" depart="30.00" color="150,150,150">
        <route edges="right3E3 E3D3 D3C3 C3B3 B3A3 A3left3"/>
    </vehicle>
    <vehicle id="top3_left1.3" depart="30.00" color="0,150,0">
        <route edges="top3D4 D4D3 D3D2 D2D1 D1C1 C1B1 B1A1 A1left1"/>
    </vehicle>
    <vehicle id="top4_left0.3" depart="30.00" color="blue">
        <route edges="top4E4 E4E3 E3E2 E2E1 E1E0 E0D0 D0C0 C0B0 B0A0 A0left0"/>
    </vehicle>
    <vehicle id="nl_bottom2_top2.8" depart="34.28" color="white">
        <route edges="bottom2C0 C0C1 C1C2 C2C3 C3C4 C4top2"/>
    </vehicle>
    <vehicle id="nl_bottom3_top3.8" depart="34.28" color="150,150,150">
        <route edges="bottom3D0 D0D1 D1D2 D2D3 D3D4 D4top3"/>
    </vehicle>
    <vehicle id="nl_bottom4_top4.8" depart="34.28" color="0,150,150">
        <route edges="bottom4E0 E0E1 E1E2 E2E3 E3E4 E4top4"/>
    </vehicle>
    <vehicle id="nl_left0_right0.8" depart="34.28" color="0,150,150">
        <route edges="left0A0 A0B0 B0C0 C0D0 D0E0 E0right0"/>
    </vehicle>
    <vehicle id="nl_left2_right2.8" depart="34.28" color="white">
        <route edges="left2A2 A2B2 B2C2 C2D2 D2E2 E2right2"/>
    </vehicle>
    <vehicle id="nl_right2_left2.8" depart="34.28" color="white">
        <route edges="right2E2 E2D2 D2C2 C2B2 B2A2 A2left2"/>
    </vehicle>
    <vehicle id="nl_right4_left4.8" depart="34.28" color="0,150,150">
        <route edges="right4E4 E4D4 D4C4 C4B4 B4A4 A4left4"/>
    </vehicle>
    <vehicle id="nl_top0_bottom0.8" depart="34.28" color="0,150,150">
        <route edges="top0A4 A4A3 A3A2 A2A1 A1A0 A0bottom0"/>
    </vehicle>
    <vehicle id="nl_top1_bottom1.8" depart="34.28" color="150,150,150">
        <route edges="top1B4 B4B3 B3B2 B2B1 B1B0 B0bottom1"/>
    </vehicle>
    <vehicle id="nl_top2_bottom2.8" depart="34.28" color="white">
        <route edges="top2C4 C4C3 C3C2 C2C1 C1C0 C0bottom2"/>
    </vehicle>
    <vehicle id="nl_bottom2_top2.9" depart="38.57" color="white">
        <route edges="bottom2C0 C0C1 C1C2 C2C3 C3C4 C4top2"/>
    </vehicle>
    <vehicle id="nl_bottom3_top3.9" depart="38.57" color="150,150,150">
        <route edges="bottom3D0 D0D1 D1D2 D2D3 D3D4 D4top3"/>
    </vehicle>
    <vehicle id="nl_bottom4_top4.9" depart="38.57" color="0,150,150">
        <route edges="bottom4E0 E0E1 E1E2 E2E3 E3E4 E4top4"/>
    </vehicle>
    <vehicle id="nl_left0_right0.9" depart="38.57" color="0,150,150">
        <route edges="left0A0 A0B0 B0C0 C0D0 D0E0 E0right0"/>
    </vehicle>
    <vehicle id="nl_left2_right2.9" depart="38.57" color="white">
        <route edges="left2A2 A2B2 B2C2 C2D2 D2E2 E2right2"/>
    </vehicle>
    <vehicle id="nl_right2_left2.9" depart="38.57" color="white">
        <route edges="right2E2 E2D2 D2C2 C2B2 B2A2 A2left2"/>
    </vehicle>
    <vehicle id="nl_right4_left4.9" depart="38.57" color="0,150,150">
        <route edges="right4E4 E4D4 D4C4 C4B4 B4A4 A4left4"/>
    </vehicle>
    <vehicle id="nl_top0_bottom0.9" depart="38.57" color="0,150,150">
        <route edges="top0A4 A4A3 A3A2 A2A1 A1A0 A0bottom0"/>
    </vehicle>
    <vehicle id="nl_top1_bottom1.9" depart="38.57" color="150,150,150">
        <route edges="top1B4 B4B3 B3B2 B2B1 B1B0 B0bottom1"/>
    </vehicle>
    <vehicle id="nl_top2_bottom2.9" depart="38.57" color="white">
        <route edges="top2C4 C4C3 C3C2 C2C1 C1C0 C0bottom2"/>
    </vehicle>
    <vehicle id="bottom0_right4.4" depart="40.00" color="red">
        <route edges="bottom0A0 A0A1 A1A2 A2A3 A3A4 A4B4 B4C4 C4D4 D4E4 E4right4"/>
    </vehicle>
    <vehicle id="bottom1_right3.4" depart="40.00" color="150,0,0">
        <route edges="bottom1B0 B0B1 B1B2 B2B3 B3C3 C3D3 D3E3 E3right3"/>
    </vehicle>
    <vehicle id="left1_right1.4" depart="40.00" color="150,150,150">
        <route edges="left1A1 A1B1 B1C1 C1D1 D1E1 E1right1"/>
    </vehicle>
    <vehicle id="left3_bottom3.4" depart="40.00" color="0,0,150">
        <route edges="left3A3 A3B3 B3C3 C3D3 D3D2 D2D1 D1D0 D0bottom3"/>
    </vehicle>
    <vehicle id="left4_bottom4.4" depart="40.00" color="green">
        <route edges="left4A4 A4B4 B4C4 C4D4 D4E4 E4E3 E3E2 E2E1 E1E0 E0bottom4"/>
    </vehicle>
    <vehicle id="right0_top0.4" depart="40.00" color="yellow">
        <route edges="right0E0 E0D0 D0C0 C0B0 B0A0 A0A1 A1A2 A2A3 A3A4 A4top0"/>
    </vehicle>
    <vehicle id="right1_top1.4" depart="40.00" color="150,150,0">
        <route edges="right1E1 E1D1 D1C1 C1B1 B1B2 B2B3 B3B4 B4top1"/>
    </vehicle>
    <vehicle id="right3_left3.4" depart="40.00" color="150,150,150">
        <route edges="right3E3 E3D3 D3C3 C3B3 B3A3 A3left3"/>
    </vehicle>
    <vehicle id="top3_left1.4" depart="40.00" color="0,150,0">
        <route edges="top3D4 D4D3 D3D2 D2D1 D1C1 C1B1 B1A1 A1left1"/>
    </vehicle>
    <vehicle id="top4_left0.4" depart="40.00" color="blue">
        <route edges="top4E4 E4E3 E3E2 E2E1 E1E0 E0D0 D0C0 C0B0 B0A0 A0left0"/>
    </vehicle>
    <vehicle id="nl_bottom2_top2.10" depart="42.85" color="white">
        <route edges="bottom2C0 C0C1 C1C2 C2C3 C3C4 C4top2"/>
    </vehicle>
    <vehicle id="nl_bottom3_top3.10" depart="42.85" color="150,150,150">
        <route edges="bottom3D0 D0D1 D1D2 D2D3 D3D4 D4top3"/>
    </vehicle>
    <vehicle id="nl_bottom4_top4.10" depart="42.85" color="0,150,150">
        <route edges="bottom4E0 E0E1 E1E2 E2E3 E3E4 E4top4"/>
    </vehicle>
    <vehicle id="nl_left0_right0.10" depart="42.85" color="0,150,150">
        <route edges="left0A0 A0B0 B0C0 C0D0 D0E0 E0right0"/>
    </vehicle>
    <vehicle id="nl_left2_right2.10" depart="42.85" color="white">
        <route edges="left2A2 A2B2 B2C2 C2D2 D2E2 E2right2"/>
    </vehicle>
    <vehicle id="nl_right2_left2.10" depart="42.85" color="white">
        <route edges="right2E2 E2D2 D2C2 C2B2 B2A2 A2left2"/>
    </vehicle>
    <vehicle id="nl_right4_left4.10" depart="42.85" color="0,150,150">
        <route edges="right4E4 E4D4 D4C4 C4B4 B4A4 A4left4"/>
    </vehicle>
    <vehicle id="nl_top0_bottom0.10" depart="42.85" color="0,150,150">
        <route edges="top0A4 A4A3 A3A2 A2A1 A1A0 A0bottom0"/>
    </vehicle>
    <vehicle id="nl_top1_bottom1.10" depart="42.85" color="150,150,150">
        <route edges="top1B4 B4B3 B3B2 B2B1 B1B0 B0bottom1"/>
    </vehicle>
    <vehicle id="nl_top2_bottom2.10" depart="42.85" color="white">
        <route edges="top2C4 C4C3 C3C2 C2C1 C1C0 C0bottom2"/>
    </vehicle>
    <vehicle id="nl_bottom2_top2.11" depart="47.14" color="white">
        <route edges="bottom2C0 C0C1 C1C2 C2C3 C3C4 C4top2"/>
    </vehicle>
    <vehicle id="nl_bottom3_top3.11" depart="47.14" color="150,150,150">
        <route edges="bottom3D0 D0D1 D1D2 D2D3 D3D4 D4top3"/>
    </vehicle>
    <vehicle id="nl_bottom4_top4.11" depart="47.14" color="0,150,150">
        <route edges="bottom4E0 E0E1 E1E2 E2E3 E3E4 E4top4"/>
    </vehicle>
    <vehicle id="nl_left0_right0.11" depart="47.14" color="0,150,150">
        <route edges="left0A0 A0B0 B0C0 C0D0 D0E0 E0right0"/>
    </vehicle>
    <vehicle id="nl_left2_right2.11" depart="47.14" color="white">
        <route edges="left2A2 A2B2 B2C2 C2D2 D2E2 E2right2"/>
    </vehicle>
    <vehicle id="nl_right2_left2.11" depart="47.14" color="white">
        <route edges="right2E2 E2D2 D2C2 C2B2 B2A2 A2left2"/>
    </vehicle>
    <vehicle id="nl_right4_left4.11" depart="47.14" color="0,150,150">
        <route edges="right4E4 E4D4 D4C4 C4B4 B4A4 A4left4"/>
    </vehicle>
    <vehicle id="nl_top0_bottom0.11" depart="47.14" color="0,150,150">
        <route edges="top0A4 A4A3 A3A2 A2A1 A1A0 A0bottom0"/>
    </vehicle>
    <vehicle id="nl_top1_bottom1.11" depart="47.14" color="150,150,150">
        <route edges="top1B4 B4B3 B3B2 B2B1 B1B0 B0bottom1"/>
    </vehicle>
    <vehicle id="nl_top2_bottom2.11" depart="47.14" color="white">
        <route edges="top2C4 C4C3 C3C2 C2C1 C1C0 C0bottom2"/>
    </vehicle>
    <vehicle id="bottom0_right4.5" depart="50.00" color="red">
        <route edges="bottom0A0 A0A1 A1A2 A2A3 A3A4 A4B4 B4C4 C4D4 D4E4 E4right4"/>
    </vehicle>
    <vehicle id="bottom1_right3.5" depart="50.00" color="150,0,0">
        <route edges="bottom1B0 B0B1 B1B2 B2B3 B3C3 C3D3 D3E3 E3right3"/>
    </vehicle>
    <vehicle id="left1_right1.5" depart="50.00" color="150,150,150">
        <route edges="left1A1 A1B1 B1C1 C1D1 D1E1 E1right1"/>
    </vehicle>
    <vehicle id="left3_bottom3.5" depart="50.00" color="0,0,150">
        <route edges="left3A3 A3B3 B3C3 C3D3 D3D2 D2D1 D1D0 D0bottom3"/>
    </vehicle>
    <vehicle id="left4_bottom4.5" depart="50.00" color="green">
        <route edges="left4A4 A4B4 B4C4 C4D4 D4E4 E4E3 E3E2 E2E1 E1E0 E0bottom4"/>
    </vehicle>
    <vehicle id="right0_top0.5" depart="50.00" color="yellow">
        <route edges="right0E0 E0D0 D0C0 C0B0 B0A0 A0A1 A1A2 A2A3 A3A4 A4top0"/>
    </vehicle>
    <vehicle id="right1_top1.5" depart="50.00" color="150,150,0">
        <route edges="right1E1 E1D1 D1C1 C1B1 B1B2 B2B3 B3B4 B4top1"/>
    </vehicle>
    <vehicle id="right3_left3.5" depart="50.00" color="150,150,150">
        <route edges="right3E3 E3D3 D3C3 C3B3 B3A3 A3left3"/>
    </vehicle>
    <vehicle id="top3_left1.5" depart="50.00" color="0,150,0">
        <route edges="top3D4 D4D3 D3D2 D2D1 D1C1 C1B1 B1A1 A1left1"/>
    </vehicle>
    <vehicle id="top4_left0.5" depart="50.00" color="blue">
        <route edges="top4E4 E4E3 E3E2 E2E1 E1E0 E0D0 D0C0 C0B0 B0A0 A0left0"/>
    </vehicle>
    <vehicle id="nl_bottom2_top2.12" depart="51.42" color="white">
        <route edges="bottom2C0 C0C1 C1C2 C2C3 C3C4 C4top2"/>
    </vehicle>
    <vehicle id="nl_bottom3_top3.12" depart="51.42" color="150,150,150">
        <route edges="bottom3D0 D0D1 D1D2 D2D3 D3D4 D4top3"/>
    </vehicle>
    <vehicle id="nl_bottom4_top4.12" depart="51.42" color="0,150,150">
        <route edges="bottom4E0 E0E1 E1E2 E2E3 E3E4 E4top4"/>
    </vehicle>
    <vehicle id="nl_left0_right0.12" depart="51.42" color="0,150,150">
        <route edges="left0A0 A0B0 B0C0 C0D0 D0E0 E0right0"/>
    </vehicle>
    <vehicle id="nl_left2_right2.12" depart="51.42" color="white">
        <route edges="left2A2 A2B2 B2C2 C2D2 D2E2 E2right2"/>
    </vehicle>
    <vehicle id="nl_right2_left2.12" depart="51.42" color="white">
        <route edges="right2E2 E2D2 D2C2 C2B2 B2A2 A2left2"/>
    </vehicle>
    <vehicle id="nl_right4_left4.12" depart="51.42" color="0,150,150">
        <route edges="right4E4 E4D4 D4C4 C4B4 B4A4 A4left4"/>
    </vehicle>
    <vehicle id="nl_top0_bottom0.12" depart="51.42" color="0,150,150">
        <route edges="top0A4 A4A3 A3A2 A2A1 A1A0 A0bottom0"/>
    </vehicle>
    <vehicle id="nl_top1_bottom1.12" depart="51.42" color="150,150,150">
        <route edges="top1B4 B4B3 B3B2 B2B1 B1B0 B0bottom1"/>
    </vehicle>
    <vehicle id="nl_top2_bottom2.12" depart="51.42" color="white">
        <route edges="top2C4 C4C3 C3C2 C2C1 C1C0 C0bottom2"/>
    </vehicle>
    <vehicle id="nl_bottom2_top2.13" depart="55.71" color="white">
        <route edges="bottom2C0 C0C1 C1C2 C2C3 C3C4 C4top2"/>
    </vehicle>
    <vehicle id="nl_bottom3_top3.13" depart="55.71" color="150,150,150">
        <route edges="bottom3D0 D0D1 D1D2 D2D3 D3D4 D4top3"/>
    </vehicle>
    <vehicle id="nl_bottom4_top4.13" depart="55.71" color="0,150,150">
        <route edges="bottom4E0 E0E1 E1E2 E2E3 E3E4 E4top4"/>
    </vehicle>
    <vehicle id="nl_left0_right0.13" depart="55.71" color="0,150,150">
        <route edges="left0A0 A0B0 B0C0 C0D0 D0E0 E0right0"/>
    </vehicle>
    <vehicle id="nl_left2_right2.13" depart="55.71" color="white">
        <route edges="left2A2 A2B2 B2C2 C2D2 D2E2 E2right2"/>
    </vehicle>
    <vehicle id="nl_right2_left2.13" depart="55.71" color="white">
        <route edges="right2E2 E2D2 D2C2 C2B2 B2A2 A2left2"/>
    </vehicle>
    <vehicle id="nl_right4_left4.13" depart="55.71" color="0,150,150">
        <route edges="right4E4 E4D4 D4C4 C4B4 B4A4 A4left4"/>
    </vehicle>
    <vehicle id="nl_top0_bottom0.13" depart="55.71" color="0,150,150">