<?xml version="1.0" encoding="UTF-8"?>

<!-- generated on 2023-03-01 19:56:38 by Eclipse SUMO duarouter Version 1.15.0
<configuration xmlns:xsi="http://www.w3.org/2001/XMLSchema-instance" xsi:noNamespaceSchemaLocation="http://sumo.dlr.de/xsd/duarouterConfiguration.xsd">

    <input>
        <net-file value="5x5_TLS.net.xml"/>
        <route-files value="TLS_changing_props/flows/5x5_no_left_turns_90_10.flow.xml"/>
    </input>

    <output>
        <output-file value="TLS_changing_props/routes/5x5_TLS_90_10.rou.xml"/>
    </output>

</configuration>
-->

<routes xmlns:xsi="http://www.w3.org/2001/XMLSchema-instance" xsi:noNamespaceSchemaLocation="http://sumo.dlr.de/xsd/routes_file.xsd">
    <vehicle id="bottom0_right4.0" depart="0.00" color="red">
        <route edges="bottom0A0 A0A1 A1A2 A2A3 A3A4 A4B4 B4C4 C4D4 D4E4 E4right4"/>
    </vehicle>
    <vehicle id="bottom1_right3.0" depart="0.00" color="150,0,0">
        <route edges="bottom1B0 B0B1 B1B2 B2B3 B3C3 C3D3 D3E3 E3right3"/>
    </vehicle>
    <vehicle id="left1_right1.0" depart="0.00" color="150,150,150">
        <route edges="left1A1 A1B1 B1C1 C1D1 D1E1 E1right1"/>
    </vehicle>
    <vehicle id="left3_bottom3.0" depart="0.00" color="0,0,150">
        <route edges="left3A3 A3B3 B3C3 C3D3 D3D2 D2D1 D1D0 D0bottom3"/>
    </vehicle>
    <vehicle id="left4_bottom4.0" depart="0.00" color="green">
        <route edges="left4A4 A4B4 B4C4 C4D4 D4E4 E4E3 E3E2 E2E1 E1E0 E0bottom4"/>
    </vehicle>
    <vehicle id="nl_bottom2_top2.0" depart="0.00" color="white">
        <route edges="bottom2C0 C0C1 C1C2 C2C3 C3C4 C4top2"/>
    </vehicle>
    <vehicle id="nl_bottom3_top3.0" depart="0.00" color="150,150,150">
        <route edges="bottom3D0 D0D1 D1D2 D2D3 D3D4 D4top3"/>
    </vehicle>
    <vehicle id="nl_bottom4_top4.0" depart="0.00" color="0,150,150">
        <route edges="bottom4E0 E0E1 E1E2 E2E3 E3E4 E4top4"/>
    </vehicle>
    <vehicle id="nl_left0_right0.0" depart="0.00" color="0,150,150">
        <route edges="left0A0 A0B0 B0C0 C0D0 D0E0 E0right0"/>
    </vehicle>
    <vehicle id="nl_left2_right2.0" depart="0.00" color="white">
        <route edges="left2A2 A2B2 B2C2 C2D2 D2E2 E2right2"/>
    </vehicle>
    <vehicle id="nl_right2_left2.0" depart="0.00" color="white">
        <route edges="right2E2 E2D2 D2C2 C2B2 B2A2 A2left2"/>
    </vehicle>
    <vehicle id="nl_right4_left4.0" depart="0.00" color="0,150,150">
        <route edges="right4E4 E4D4 D4C4 C4B4 B4A4 A4left4"/>
    </vehicle>
    <vehicle id="nl_top0_bottom0.0" depart="0.00" color="0,150,150">
        <route edges="top0A4 A4A3 A3A2 A2A1 A1A0 A0bottom0"/>
    </vehicle>
    <vehicle id="nl_top1_bottom1.0" depart="0.00" color="150,150,150">
        <route edges="top1B4 B4B3 B3B2 B2B1 B1B0 B0bottom1"/>
    </vehicle>
    <vehicle id="nl_top2_bottom2.0" depart="0.00" color="white">
        <route edges="top2C4 C4C3 C3C2 C2C1 C1C0 C0bottom2"/>
    </vehicle>
    <vehicle id="right0_top0.0" depart="0.00" color="yellow">
        <route edges="right0E0 E0D0 D0C0 C0B0 B0A0 A0A1 A1A2 A2A3 A3A4 A4top0"/>
    </vehicle>
    <vehicle id="right1_top1.0" depart="0.00" color="150,150,0">
        <route edges="right1E1 E1D1 D1C1 C1B1 B1B2 B2B3 B3B4 B4top1"/>
    </vehicle>
    <vehicle id="right3_left3.0" depart="0.00" color="150,150,150">
        <route edges="right3E3 E3D3 D3C3 C3B3 B3A3 A3left3"/>
    </vehicle>
    <vehicle id="top3_left1.0" depart="0.00" color="0,150,0">
        <route edges="top3D4 D4D3 D3D2 D2D1 D1C1 C1B1 B1A1 A1left1"/>
    </vehicle>
    <vehicle id="top4_left0.0" depart="0.00" color="blue">
        <route edges="top4E4 E4E3 E3E2 E2E1 E1E0 E0D0 D0C0 C0B0 B0A0 A0left0"/>
    </vehicle>
    <vehicle id="bottom0_right4.1" depart="3.33" color="red">
        <route edges="bottom0A0 A0A1 A1A2 A2A3 A3A4 A4B4 B4C4 C4D4 D4E4 E4right4"/>
    </vehicle>
    <vehicle id="bottom1_right3.1" depart="3.33" color="150,0,0">
        <route edges="bottom1B0 B0B1 B1B2 B2B3 B3C3 C3D3 D3E3 E3right3"/>
    </vehicle>
    <vehicle id="left1_right1.1" depart="3.33" color="150,150,150">
        <route edges="left1A1 A1B1 B1C1 C1D1 D1E1 E1right1"/>
    </vehicle>
    <vehicle id="left3_bottom3.1" depart="3.33" color="0,0,150">
        <route edges="left3A3 A3B3 B3C3 C3D3 D3D2 D2D1 D1D0 D0bottom3"/>
    </vehicle>
    <vehicle id="left4_bottom4.1" depart="3.33" color="green">
        <route edges="left4A4 A4B4 B4C4 C4D4 D4E4 E4E3 E3E2 E2E1 E1E0 E0bottom4"/>
    </vehicle>
    <vehicle id="right0_top0.1" depart="3.33" color="yellow">
        <route edges="right0E0 E0D0 D0C0 C0B0 B0A0 A0A1 A1A2 A2A3 A3A4 A4top0"/>
    </vehicle>
    <vehicle id="right1_top1.1" depart="3.33" color="150,150,0">
        <route edges="right1E1 E1D1 D1C1 C1B1 B1B2 B2B3 B3B4 B4top1"/>
    </vehicle>
    <vehicle id="right3_left3.1" depart="3.33" color="150,150,150">
        <route edges="right3E3 E3D3 D3C3 C3B3 B3A3 A3left3"/>
    </vehicle>
    <vehicle id="top3_left1.1" depart="3.33" color="0,150,0">
        <route edges="top3D4 D4D3 D3D2 D2D1 D1C1 C1B1 B1A1 A1left1"/>
    </vehicle>
    <vehicle id="top4_left0.1" depart="3.33" color="blue">
        <route edges="top4E4 E4E3 E3E2 E2E1 E1E0 E0D0 D0C0 C0B0 B0A0 A0left0"/>
    </vehicle>
    <vehicle id="bottom0_right4.2" depart="6.67" color="red">
        <route edges="bottom0A0 A0A1 A1A2 A2A3 A3A4 A4B4 B4C4 C4D4 D4E4 E4right4"/>
    </vehicle>
    <vehicle id="bottom1_right3.2" depart="6.67" color="150,0,0">
        <route edges="bottom1B0 B0B1 B1B2 B2B3 B3C3 C3D3 D3E3 E3right3"/>
    </vehicle>
    <vehicle id="left1_right1.2" depart="6.67" color="150,150,150">
        <route edges="left1A1 A1B1 B1C1 C1D1 D1E1 E1right1"/>
    </vehicle>
    <vehicle id="left3_bottom3.2" depart="6.67" color="0,0,150">
        <route edges="left3A3 A3B3 B3C3 C3D3 D3D2 D2D1 D1D0 D0bottom3"/>
    </vehicle>
    <vehicle id="left4_bottom4.2" depart="6.67" color="green">
        <route edges="left4A4 A4B4 B4C4 C4D4 D4E4 E4E3 E3E2 E2E1 E1E0 E0bottom4"/>
    </vehicle>
    <vehicle id="right0_top0.2" depart="6.67" color="yellow">
        <route edges="right0E0 E0D0 D0C0 C0B0 B0A0 A0A1 A1A2 A2A3 A3A4 A4top0"/>
    </vehicle>
    <vehicle id="right1_top1.2" depart="6.67" color="150,150,0">
        <route edges="right1E1 E1D1 D1C1 C1B1 B1B2 B2B3 B3B4 B4top1"/>
    </vehicle>
    <vehicle id="right3_left3.2" depart="6.67" color="150,150,150">
        <route edges="right3E3 E3D3 D3C3 C3B3 B3A3 A3left3"/>
    </vehicle>
    <vehicle id="top3_left1.2" depart="6.67" color="0,150,0">
        <route edges="top3D4 D4D3 D3D2 D2D1 D1C1 C1B1 B1A1 A1left1"/>
    </vehicle>
    <vehicle id="top4_left0.2" depart="6.67" color="blue">
        <route edges="top4E4 E4E3 E3E2 E2E1 E1E0 E0D0 D0C0 C0B0 B0A0 A0left0"/>
    </vehicle>
    <vehicle id="bottom0_right4.3" depart="10.00" color="red">
        <route edges="bottom0A0 A0A1 A1A2 A2A3 A3A4 A4B4 B4C4 C4D4 D4E4 E4right4"/>
    </vehicle>
    <vehicle id="bottom1_right3.3" depart="10.00" color="150,0,0">
        <route edges="bottom1B0 B0B1 B1B2 B2B3 B3C3 C3D3 D3E3 E3right3"/>
    </vehicle>
    <vehicle id="left1_right1.3" depart="10.00" color="150,150,150">
        <route edges="left1A1 A1B1 B1C1 C1D1 D1E1 E1right1"/>
    </vehicle>
    <vehicle id="left3_bottom3.3" depart="10.00" color="0,0,150">
        <route edges="left3A3 A3B3 B3C3 C3D3 D3D2 D2D1 D1D0 D0bottom3"/>
    </vehicle>
    <vehicle id="left4_bottom4.3" depart="10.00" color="green">
        <route edges="left4A4 A4B4 B4C4 C4D4 D4E4 E4E3 E3E2 E2E1 E1E0 E0bottom4"/>
    </vehicle>
    <vehicle id="right0_top0.3" depart="10.00" color="yellow">
        <route edges="right0E0 E0D0 D0C0 C0B0 B0A0 A0A1 A1A2 A2A3 A3A4 A4top0"/>
    </vehicle>
    <vehicle id="right1_top1.3" depart="10.00" color="150,150,0">
        <route edges="right1E1 E1D1 D1C1 C1B1 B1B2 B2B3 B3B4 B4top1"/>
    </vehicle>
    <vehicle id="right3_left3.3" depart="10.00" color="150,150,150">
        <route edges="right3E3 E3D3 D3C3 C3B3 B3A3 A3left3"/>
    </vehicle>
    <vehicle id="top3_left1.3" depart="10.00" color="0,150,0">
        <route edges="top3D4 D4D3 D3D2 D2D1 D1C1 C1B1 B1A1 A1left1"/>
    </vehicle>
    <vehicle id="top4_left0.3" depart="10.00" color="blue">
        <route edges="top4E4 E4E3 E3E2 E2E1 E1E0 E0D0 D0C0 C0B0 B0A0 A0left0"/>
    </vehicle>
    <vehicle id="bottom0_right4.4" depart="13.33" color="red">
        <route edges="bottom0A0 A0A1 A1A2 A2A3 A3A4 A4B4 B4C4 C4D4 D4E4 E4right4"/>
    </vehicle>
    <vehicle id="bottom1_right3.4" depart="13.33" color="150,0,0">
        <route edges="bottom1B0 B0B1 B1B2 B2B3 B3C3 C3D3 D3E3 E3right3"/>
    </vehicle>
    <vehicle id="left1_right1.4" depart="13.33" color="150,150,150">
        <route edges="left1A1 A1B1 B1C1 C1D1 D1E1 E1right1"/>
    </vehicle>
    <vehicle id="left3_bottom3.4" depart="13.33" color="0,0,150">
        <route edges="left3A3 A3B3 B3C3 C3D3 D3D2 D2D1 D1D0 D0bottom3"/>
    </vehicle>
    <vehicle id="left4_bottom4.4" depart="13.33" color="green">
        <route edges="left4A4 A4B4 B4C4 C4D4 D4E4 E4E3 E3E2 E2E1 E1E0 E0bottom4"/>
    </vehicle>
    <vehicle id="right0_top0.4" depart="13.33" color="yellow">
        <route edges="right0E0 E0D0 D0C0 C0B0 B0A0 A0A1 A1A2 A2A3 A3A4 A4top0"/>
    </vehicle>
    <vehicle id="right1_top1.4" depart="13.33" color="150,150,0">
        <route edges="right1E1 E1D1 D1C1 C1B1 B1B2 B2B3 B3B4 B4top1"/>
    </vehicle>
    <vehicle id="right3_left3.4" depart="13.33" color="150,150,150">
        <route edges="right3E3 E3D3 D3C3 C3B3 B3A3 A3left3"/>
    </vehicle>
    <vehicle id="top3_left1.4" depart="13.33" color="0,150,0">
        <route edges="top3D4 D4D3 D3D2 D2D1 D1C1 C1B1 B1A1 A1left1"/>
    </vehicle>
    <vehicle id="top4_left0.4" depart="13.33" color="blue">
        <route edges="top4E4 E4E3 E3E2 E2E1 E1E0 E0D0 D0C0 C0B0 B0A0 A0left0"/>
    </vehicle>
    <vehicle id="bottom0_right4.5" depart="16.67" color="red">
        <route edges="bottom0A0 A0A1 A1A2 A2A3 A3A4 A4B4 B4C4 C4D4 D4E4 E4right4"/>
    </vehicle>
    <vehicle id="bottom1_right3.5" depart="16.67" color="150,0,0">
        <route edges="bottom1B0 B0B1 B1B2 B2B3 B3C3 C3D3 D3E3 E3right3"/>
    </vehicle>
    <vehicle id="left1_right1.5" depart="16.67" color="150,150,150">
        <route edges="left1A1 A1B1 B1C1 C1D1 D1E1 E1right1"/>
    </vehicle>
    <vehicle id="left3_bottom3.5" depart="16.67" color="0,0,150">
        <route edges="left3A3 A3B3 B3C3 C3D3 D3D2 D2D1 D1D0 D0bottom3"/>
    </vehicle>
    <vehicle id="left4_bottom4.5" depart="16.67" color="green">
        <route edges="left4A4 A4B4 B4C4 C4D4 D4E4 E4E3 E3E2 E2E1 E1E0 E0bottom4"/>
    </vehicle>
    <vehicle id="right0_top0.5" depart="16.67" color="yellow">
        <route edges="right0E0 E0D0 D0C0 C0B0 B0A0 A0A1 A1A2 A2A3 A3A4 A4top0"/>
    </vehicle>
    <vehicle id="right1_top1.5" depart="16.67" color="150,150,0">
        <route edges="right1E1 E1D1 D1C1 C1B1 B1B2 B2B3 B3B4 B4top1"/>
    </vehicle>
    <vehicle id="right3_left3.5" depart="16.67" color="150,150,150">
        <route edges="right3E3 E3D3 D3C3 C3B3 B3A3 A3left3"/>
    </vehicle>
    <vehicle id="top3_left1.5" depart="16.67" color="0,150,0">
        <route edges="top3D4 D4D3 D3D2 D2D1 D1C1 C1B1 B1A1 A1left1"/>
    </vehicle>
    <vehicle id="top4_left0.5" depart="16.67" color="blue">
        <route edges="top4E4 E4E3 E3E2 E2E1 E1E0 E0D0 D0C0 C0B0 B0A0 A0left0"/>
    </vehicle>
    <vehicle id="bottom0_right4.6" depart="20.00" color="red">
        <route edges="bottom0A0 A0A1 A1A2 A2A3 A3A4 A4B4 B4C4 C4D4 D4E4 E4right4"/>
    </vehicle>
    <vehicle id="bottom1_right3.6" depart="20.00" color="150,0,0">
        <route edges="bottom1B0 B0B1 B1B2 B2B3 B3C3 C3D3 D3E3 E3right3"/>
    </vehicle>
    <vehicle id="left1_right1.6" depart="20.00" color="150,150,150">
        <route edges="left1A1 A1B1 B1C1 C1D1 D1E1 E1right1"/>
    </vehicle>
    <vehicle id="left3_bottom3.6" depart="20.00" color="0,0,150">
        <route edges="left3A3 A3B3 B3C3 C3D3 D3D2 D2D1 D1D0 D0bottom3"/>
    </vehicle>
    <vehicle id="left4_bottom4.6" depart="20.00" color="green">
        <route edges="left4A4 A4B4 B4C4 C4D4 D4E4 E4E3 E3E2 E2E1 E1E0 E0bottom4"/>
    </vehicle>
    <vehicle id="right0_top0.6" depart="20.00" color="yellow">
        <route edges="right0E0 E0D0 D0C0 C0B0 B0A0 A0A1 A1A2 A2A3 A3A4 A4top0"/>
    </vehicle>
    <vehicle id="right1_top1.6" depart="20.00" color="150,150,0">
        <route edges="right1E1 E1D1 D1C1 C1B1 B1B2 B2B3 B3B4 B4top1"/>
    </vehicle>
    <vehicle id="right3_left3.6" depart="20.00" color="150,150,150">
        <route edges="right3E3 E3D3 D3C3 C3B3 B3A3 A3left3"/>
    </vehicle>
    <vehicle id="top3_left1.6" depart="20.00" color="0,150,0">
        <route edges="top3D4 D4D3 D3D2 D2D1 D1C1 C1B1 B1A1 A1left1"/>
    </vehicle>
    <vehicle id="top4_left0.6" depart="20.00" color="blue">
        <route edges="top4E4 E4E3 E3E2 E2E1 E1E0 E0D0 D0C0 C0B0 B0A0 A0left0"/>
    </vehicle>
    <vehicle id="bottom0_right4.7" depart="23.33" color="red">
        <route edges="bottom0A0 A0A1 A1A2 A2A3 A3A4 A4B4 B4C4 C4D4 D4E4 E4right4"/>
    </vehicle>
    <vehicle id="bottom1_right3.7" depart="23.33" color="150,0,0">
        <route edges="bottom1B0 B0B1 B1B2 B2B3 B3C3 C3D3 D3E3 E3right3"/>
    </vehicle>
    <vehicle id="left1_right1.7" depart="23.33" color="150,150,150">
        <route edges="left1A1 A1B1 B1C1 C1D1 D1E1 E1right1"/>
    </vehicle>
    <vehicle id="left3_bottom3.7" depart="23.33" color="0,0,150">
        <route edges="left3A3 A3B3 B3C3 C3D3 D3D2 D2D1 D1D0 D0bottom3"/>
    </vehicle>
    <vehicle id="left4_bottom4.7" depart="23.33" color="green">
        <route edges="left4A4 A4B4 B4C4 C4D4 D4E4 E4E3 E3E2 E2E1 E1E0 E0bottom4"/>
    </vehicle>
    <vehicle id="right0_top0.7" depart="23.33" color="yellow">
        <route edges="right0E0 E0D0 D0C0 C0B0 B0A0 A0A1 A1A2 A2A3 A3A4 A4top0"/>
    </vehicle>
    <vehicle id="right1_top1.7" depart="23.33" color="150,150,0">
        <route edges="right1E1 E1D1 D1C1 C1B1 B1B2 B2B3 B3B4 B4top1"/>
    </vehicle>
    <vehicle id="right3_left3.7" depart="23.33" color="150,150,150">
        <route edges="right3E3 E3D3 D3C3 C3B3 B3A3 A3left3"/>
    </vehicle>
    <vehicle id="top3_left1.7" depart="23.33" color="0,150,0">
        <route edges="top3D4 D4D3 D3D2 D2D1 D1C1 C1B1 B1A1 A1left1"/>
    </vehicle>
    <vehicle id="top4_left0.7" depart="23.33" color="blue">
        <route edges="top4E4 E4E3 E3E2 E2E1 E1E0 E0D0 D0C0 C0B0 B0A0 A0left0"/>
    </vehicle>
    <vehicle id="bottom0_right4.8" depart="26.66" color="red">
        <route edges="bottom0A0 A0A1 A1A2 A2A3 A3A4 A4B4 B4C4 C4D4 D4E4 E4right4"/>
    </vehicle>
    <vehicle id="bottom1_right3.8" depart="26.66" color="150,0,0">
        <route edges="bottom1B0 B0B1 B1B2 B2B3 B3C3 C3D3 D3E3 E3right3"/>
    </vehicle>
    <vehicle id="left1_right1.8" depart="26.66" color="150,150,150">
        <route edges="left1A1 A1B1 B1C1 C1D1 D1E1 E1right1"/>
    </vehicle>
    <vehicle id="left3_bottom3.8" depart="26.66" color="0,0,150">
        <route edges="left3A3 A3B3 B3C3 C3D3 D3D2 D2D1 D1D0 D0bottom3"/>
    </vehicle>
    <vehicle id="left4_bottom4.8" depart="26.66" color="green">
        <route edges="left4A4 A4B4 B4C4 C4D4 D4E4 E4E3 E3E2 E2E1 E1E0 E0bottom4"/>
    </vehicle>
    <vehicle id="right0_top0.8" depart="26.66" color="yellow">
        <route edges="right0E0 E0D0 D0C0 C0B0 B0A0 A0A1 A1A2 A2A3 A3A4 A4top0"/>
    </vehicle>
    <vehicle id="right1_top1.8" depart="26.66" color="150,150,0">
        <route edges="right1E1 E1D1 D1C1 C1B1 B1B2 B2B3 B3B4 B4top1"/>
    </vehicle>
    <vehicle id="right3_left3.8" depart="26.66" color="150,150,150">
        <route edges="right3E3 E3D3 D3C3 C3B3 B3A3 A3left3"/>
    </vehicle>
    <vehicle id="top3_left1.8" depart="26.66" color="0,150,0">
        <route edges="top3D4 D4D3 D3D2 D2D1 D1C1 C1B1 B1A1 A1left1"/>
    </vehicle>
    <vehicle id="top4_left0.8" depart="26.66" color="blue">
        <route edges="top4E4 E4E3 E3E2 E2E1 E1E0 E0D0 D0C0 C0B0 B0A0 A0left0"/>
    </vehicle>
    <vehicle id="bottom0_right4.9" depart="30.00" color="red">
        <route edges="bottom0A0 A0A1 A1A2 A2A3 A3A4 A4B4 B4C4 C4D4 D4E4 E4right4"/>
    </vehicle>
    <vehicle id="bottom1_right3.9" depart="30.00" color="150,0,0">
        <route edges="bottom1B0 B0B1 B1B2 B2B3 B3C3 C3D3 D3E3 E3right3"/>
    </vehicle>
    <vehicle id="left1_right1.9" depart="30.00" color="150,150,150">
        <route edges="left1A1 A1B1 B1C1 C1D1 D1E1 E1right1"/>
    </vehicle>
    <vehicle id="left3_bottom3.9" depart="30.00" color="0,0,150">
        <route edges="left3A3 A3B3 B3C3 C3D3 D3D2 D2D1 D1D0 D0bottom3"/>
    </vehicle>
    <vehicle id="left4_bottom4.9" depart="30.00" color="green">
        <route edges="left4A4 A4B4 B4C4 C4D4 D4E4 E4E3 E3E2 E2E1 E1E0 E0bottom4"/>
    </vehicle>
    <vehicle id="right0_top0.9" depart="30.00" color="yellow">
        <route edges="right0E0 E0D0 D0C0 C0B0 B0A0 A0A1 A1A2 A2A3 A3A4 A4top0"/>
    </vehicle>
    <vehicle id="right1_top1.9" depart="30.00" color="150,150,0">
        <route edges="right1E1 E1D1 D1C1 C1B1 B1B2 B2B3 B3B4 B4top1"/>
    </vehicle>
    <vehicle id="right3_left3.9" depart="30.00" color="150,150,150">
        <route edges="right3E3 E3D3 D3C3 C3B3 B3A3 A3left3"/>
    </vehicle>
    <vehicle id="top3_left1.9" depart="30.00" color="0,150,0">
        <route edges="top3D4 D4D3 D3D2 D2D1 D1C1 C1B1 B1A1 A1left1"/>
    </vehicle>
    <vehicle id="top4_left0.9" depart="30.00" color="blue">
        <route edges="top4E4 E4E3 E3E2 E2E1 E1E0 E0D0 D0C0 C0B0 B0A0 A0left0"/>
    </vehicle>
    <vehicle id="nl_bottom2_top2.1" depart="30.00" color="white">
        <route edges="bottom2C0 C0C1 C1C2 C2C3 C3C4 C4top2"/>
    </vehicle>
    <vehicle id="nl_bottom3_top3.1" depart="30.00" color="150,150,150">
        <route edges="bottom3D0 D0D1 D1D2 D2D3 D3D4 D4top3"/>
    </vehicle>
    <vehicle id="nl_bottom4_top4.1" depart="30.00" color="0,150,150">
        <route edges="bottom4E0 E0E1 E1E2 E2E3 E3E4 E4top4"/>
    </vehicle>
    <vehicle id="nl_left0_right0.1" depart="30.00" color="0,150,150">
        <route edges="left0A0 A0B0 B0C0 C0D0 D0E0 E0right0"/>
    </vehicle>
    <vehicle id="nl_left2_right2.1" depart="30.00" color="white">
        <route edges="left2A2 A2B2 B2C2 C2D2 D2E2 E2right2"/>
    </vehicle>
    <vehicle id="nl_right2_left2.1" depart="30.00" color="white">
        <route edges="right2E2 E2D2 D2C2 C2B2 B2A2 A2left2"/>
    </vehicle>
    <vehicle id="nl_right4_left4.1" depart="30.00" color="0,150,150">
        <route edges="right4E4 E4D4 D4C4 C4B4 B4A4 A4left4"/>
    </vehicle>
    <vehicle id="nl_top0_bottom0.1" depart="30.00" color="0,150,150">
        <route edges="top0A4 A4A3 A3A2 A2A1 A1A0 A0bottom0"/>
    </vehicle>
    <vehicle id="nl_top1_bottom1.1" depart="30.00" color="150,150,150">
        <route edges="top1B4 B4B3 B3B2 B2B1 B1B0 B0bottom1"/>
    </vehicle>
    <vehicle id="nl_top2_bottom2.1" depart="30.00" color="white">
        <route edges="top2C4 C4C3 C3C2 C2C1 C1C0 C0bottom2"/>
    </vehicle>
    <vehicle id="bottom0_right4.10" depart="33.33" color="red">
        <route edges="bottom0A0 A0A1 A1A2 A2A3 A3A4 A4B4 B4C4 C4D4 D4E4 E4right4"/>
    </vehicle>
    <vehicle id="bottom1_right3.10" depart="33.33" color="150,0,0">
        <route edges="bottom1B0 B0B1 B1B2 B2B3 B3C3 C3D3 D3E3 E3right3"/>
    </vehicle>
    <vehicle id="left1_right1.10" depart="33.33" color="150,150,150">
        <route edges="left1A1 A1B1 B1C1 C1D1 D1E1 E1right1"/>
    </vehicle>
    <vehicle id="left3_bottom3.10" depart="33.33" color="0,0,150">
        <route edges="left3A3 A3B3 B3C3 C3D3 D3D2 D2D1 D1D0 D0bottom3"/>
    </vehicle>
    <vehicle id="left4_bottom4.10" depart="33.33" color="green">
        <route edges="left4A4 A4B4 B4C4 C4D4 D4E4 E4E3 E3E2 E2E1 E1E0 E0bottom4"/>
    </vehicle>
    <vehicle id="right0_top0.10" depart="33.33" color="yellow">
        <route edges="right0E0 E0D0 D0C0 C0B0 B0A0 A0A1 A1A2 A2A3 A3A4 A4top0"/>
    </vehicle>
    <vehicle id="right1_top1.10" depart="33.33" color="150,150,0">
        <route edges="right1E1 E1D1 D1C1 C1B1 B1B2 B2B3 B3B4 B4top1"/>
    </vehicle>
    <vehicle id="right3_left3.10" depart="33.33" color="150,150,150">
        <route edges="right3E3 E3D3 D3C3 C3B3 B3A3 A3left3"/>
    </vehicle>
    <vehicle id="top3_left1.10" depart="33.33" color="0,150,0">
        <route edges="top3D4 D4D3 D3D2 D2D1 D1C1 C1B1 B1A1 A1left1"/>
    </vehicle>
    <vehicle id="top4_left0.10" depart="33.33" color="blue">
        <route edges="top4E4 E4E3 E3E2 E2E1 E1E0 E0D0 D0C0 C0B0 B0A0 A0left0"/>
    </vehicle>
    <vehicle id="bottom0_right4.11" depart="36.66" color="red">
        <route edges="bottom0A0 A0A1 A1A2 A2A3 A3A4 A4B4 B4C4 C4D4 D4E4 E4right4"/>
    </vehicle>
    <vehicle id="bottom1_right3.11" depart="36.66" color="150,0,0">
        <route edges="bottom1B0 B0B1 B1B2 B2B3 B3C3 C3D3 D3E3 E3right3"/>
    </vehicle>
    <vehicle id="left1_right1.11" depart="36.66" color="150,150,150">
        <route edges="left1A1 A1B1 B1C1 C1D1 D1E1 E1right1"/>
    </vehicle>
    <vehicle id="left3_bottom3.11" depart="36.66" color="0,0,150">
        <route edges="left3A3 A3B3 B3C3 C3D3 D3D2 D2D1 D1D0 D0bottom3"/>
    </vehicle>
    <vehicle id="left4_bottom4.11" depart="36.66" color="green">
        <route edges="left4A4 A4B4 B4C4 C4D4 D4E4 E4E3 E3E2 E2E1 E1E0 E0bottom4"/>
    </vehicle>
    <vehicle id="right0_top0.11" depart="36.66" color="yellow">
        <route edges="right0E0 E0D0 D0C0 C0B0 B0A0 A0A1 A1A2 A2A3 A3A4 A4top0"/>
    </vehicle>
    <vehicle id="right1_top1.11" depart="36.66" color="150,150,0">
        <route edges="right1E1 E1D1 D1C1 C1B1 B1B2 B2B3 B3B4 B4top1"/>
    </vehicle>
    <vehicle id="right3_left3.11" depart="36.66" color="150,150,150">
        <route edges="right3E3 E3D3 D3C3 C3B3 B3A3 A3left3"/>
    </vehicle>
    <vehicle id="top3_left1.11" depart="36.66" color="0,150,0">
        <route edges="top3D4 D4D3 D3D2 D2D1 D1C1 C1B1 B1A1 A1left1"/>
    </vehicle>
    <vehicle id="top4_left0.11" depart="36.66" color="blue">
        <route edges="top4E4 E4E3 E3E2 E2E1 E1E0 E0D0 D0C0 C0B0 B0A0 A0left0"/>
    </vehicle>
    <vehicle id="bottom0_right4.12" depart="40.00" color="red">
        <route edges="bottom0A0 A0A1 A1A2 A2A3 A3A4 A4B4 B4C4 C4D4 D4E4 E4right4"/>
    </vehicle>
    <vehicle id="bottom1_right3.12" depart="40.00" color="150,0,0">
        <route edges="bottom1B0 B0B1 B1B2 B2B3 B3C3 C3D3 D3E3 E3right3"/>
    </vehicle>
    <vehicle id="left1_right1.12" depart="40.00" color="150,150,150">
        <route edges="left1A1 A1B1 B1C1 C1D1 D1E1 E1right1"/>
    </vehicle>
    <vehicle id="left3_bottom3.12" depart="40.00" color="0,0,150">
        <route edges="left3A3 A3B3 B3C3 C3D3 D3D2 D2D1 D1D0 D0bottom3"/>
    </vehicle>
    <vehicle id="left4_bottom4.12" depart="40.00" color="green">
        <route edges="left4A4 A4B4 B4C4 C4D4 D4E4 E4E3 E3E2 E2E1 E1E0 E0bottom4"/>
    </vehicle>
    <vehicle id="right0_top0.12" depart="40.00" color="yellow">
        <route edges="right0E0 E0D0 D0C0 C0B0 B0A0 A0A1 A1A2 A2A3 A3A4 A4top0"/>
    </vehicle>
    <vehicle id="right1_top1.12" depart="40.00" color="150,150,0">
        <route edges="right1E1 E1D1 D1C1 C1B1 B1B2 B2B3 B3B4 B4top1"/>
    </vehicle>
    <vehicle id="right3_left3.12" depart="40.00" color="150,150,150">
        <route edges="right3E3 E3D3 D3C3 C3B3 B3A3 A3left3"/>
    </vehicle>
    <vehicle id="top3_left1.12" depart="40.00" color="0,150,0">
        <route edges="top3D4 D4D3 D3D2 D2D1 D1C1 C1B1 B1A1 A1left1"/>
    </vehicle>
    <vehicle id="top4_left0.12" depart="40.00" color="blue">
        <route edges="top4E4 E4E3 E3E2 E2E1 E1E0 E0D0 D0C0 C0B0 B0A0 A0left0"/>
    </vehicle>
    <vehicle id="bottom0_right4.13" depart="43.33" color="red">
        <route edges="bottom0A0 A0A1 A1A2 A2A3 A3A4 A4B4 B4C4 C4D4 D4E4 E4right4"/>
    </vehicle>
    <vehicle id="bottom1_right3.13" depart="43.33" color="150,0,0">
        <route edges="bottom1B0 B0B1 B1B2 B2B3 B3C3 C3D3 D3E3 E3right3"/>
    </vehicle>
    <vehicle id="left1_right1.13" depart="43.33" color="150,150,150">
        <route edges="left1A1 A1B1 B1C1 C1D1 D1E1 E1right1"/>
    </vehicle>
    <vehicle id="left3_bottom3.13" depart="43.33" color="0,0,150">
        <route edges="left3A3 A3B3 B3C3 C3D3 D3D2 D2D1 D1D0 D0bottom3"/>
    </vehicle>
    <vehicle id="left4_bottom4.13" depart="43.33" color="green">
        <route edges="left4A4 A4B4 B4C4 C4D4 D4E4 E4E3 E3E2 E2E1 E1E0 E0bottom4"/>
    </vehicle>
    <vehicle id="right0_top0.13" depart="43.33" color="yellow">
        <route edges="right0E0 E0D0 D0C0 C0B0 B0A0 A0A1 A1A2 A2A3 A3A4 A4top0"/>
    </vehicle>
    <vehicle id="right1_top1.13" depart="43.33" color="150,150,0">
        <route edges="right1E1 E1D1 D1C1 C1B1 B1B2 B2B3 B3B4 B4top1"/>
    </vehicle>
    <vehicle id="right3_left3.13" depart="43.33" color="150,150,150">
        <route edges="right3E3 E3D3 D3C3 C3B3 B3A3 A3left3"/>
    </vehicle>
    <vehicle id="top3_left1.13" depart="43.33" color="0,150,0">
        <route edges="top3D4 D4D3 D3D2 D2D1 D1C1 C1B1 B1A1 A1left1"/>
    </vehicle>
    <vehicle id="top4_left0.13" depart="43.33" color="blue">
        <route edges="top4E4 E4E3 E3E2 E2E1 E1E0 E0D0 D0C0 C0B0 B0A0 A0left0"/>
    </vehicle>
    <vehicle id="bottom0_right4.14" depart="46.66" color="red">
        <route edges="bottom0A0 A0A1 A1A2 A2A3 A3A4 A4B4 B4C4 C4D4 D4E4 E4right4"/>
    </vehicle>
    <vehicle id="bottom1_right3.14" depart="46.66" color="150,0,0">
        <route edges="bottom1B0 B0B1 B1B2 B2B3 B3C3 C3D3 D3E3 E3right3"/>
    </vehicle>
    <vehicle id="left1_right1.14" depart="46.66" color="150,150,150">
        <route edges="left1A1 A1B1 B1C1 C1D1 D1E1 E1right1"/>
    </vehicle>
    <vehicle id="left3_bottom3.14" depart="46.66" color="0,0,150">
        <route edges="left3A3 A3B3 B3C3 C3D3 D3D2 D2D1 D1D0 D0bottom3"/>
    </vehicle>
    <vehicle id="left4_bottom4.14" depart="46.66" color="green">
        <route edges="left4A4 A4B4 B4C4 C4D4 D4E4 E4E3 E3E2 E2E1 E1E0 E0bottom4"/>
    </vehicle>
    <vehicle id="right0_top0.14" depart="46.66" color="yellow">
        <route edges="right0E0 E0D0 D0C0 C0B0 B0A0 A0A1 A1A2 A2A3 A3A4 A4top0"/>
    </vehicle>
    <vehicle id="right1_top1.14" depart="46.66" color="150,150,0">
        <route edges="right1E1 E1D1 D1C1 C1B1 B1B2 B2B3 B3B4 B4top1"/>
    </vehicle>
    <vehicle id="right3_left3.14" depart="46.66" color="150,150,150">
        <route edges="right3E3 E3D3 D3C3 C3B3 B3A3 A3left3"/>
    </vehicle>
    <vehicle id="top3_left1.14" depart="46.66" color="0,150,0">
        <route edges="top3D4 D4D3 D3D2 D2D1 D1C1 C1B1 B1A1 A1left1"/>
    </vehicle>
    <vehicle id="top4_left0.14" depart="46.66" color="blue">
        <route edges="top4E4 E4E3 E3E2 E2E1 E1E0 E0D0 D0C0 C0B0 B0A0 A0left0"/>
    </vehicle>
    <vehicle id="bottom0_right4.15" depart="50.00" color="red">
        <route edges="bottom0A0 A0A1 A1A2 A2A3 A3A4 A4B4 B4C4 C4D4 D4E4 E4right4"/>
    </vehicle>
    <vehicle id="bottom1_right3.15" depart="50.00" color="150,0,0">
        <route edges="bottom1B0 B0B1 B1B2 B2B3 B3C3 C3D3 D3E3 E3right3"/>
    </vehicle>
    <vehicle id="left1_right1.15" depart="50.00" color="150,150,150">
        <route edges="left1A1 A1B1 B1C1 C1D1 D1E1 E1right1"/>
    </vehicle>
    <vehicle id="left3_bottom3.15" depart="50.00" color="0,0,150">
        <route edges="left3A3 A3B3 B3C3 C3D3 D3D2 D2D1 D1D0 D0bottom3"/>
    </vehicle>
    <vehicle id="left4_bottom4.15" depart="50.00" color="green">
        <route edges="left4A4 A4B4 B4C4 C4D4 D4E4 E4E3 E3E2 E2E1 E1E0 E0bottom4"/>
    </vehicle>
    <vehicle id="right0_top0.15" depart="50.00" color="yellow">
        <route edges="right0E0 E0D0 D0C0 C0B0 B0A0 A0A1 A1A2 A2A3 A3A4 A4top0"/>
    </vehicle>
    <vehicle id="right1_top1.15" depart="50.00" color="150,150,0">
        <route edges="right1E1 E1D1 D1C1 C1B1 B1B2 B2B3 B3B4 B4top1"/>
    </vehicle>
    <vehicle id="right3_left3.15" depart="50.00" color="150,150,150">
        <route edges="right3E3 E3D3 D3C3 C3B3 B3A3 A3left3"/>
    </vehicle>
    <vehicle id="top3_left1.15" depart="50.00" color="0,150,0">
        <route edges="top3D4 D4D3 D3D2 D2D1 D1C1 C1B1 B1A1 A1left1"/>
    </vehicle>
    <vehicle id="top4_left0.15" depart="50.00" color="blue">
        <route edges="top4E4 E4E3 E3E2 E2E1 E1E0 E0D0 D0C0 C0B0 B0A0 A0left0"/>
    </vehicle>
    <vehicle id="bottom0_right4.16" depart="53.33" color="red">
        <route edges="bottom0A0 A0A1 A1A2 A2A3 A3A4 A4B4 B4C4 C4D4 D4E4 E4right4"/>
    </vehicle>
    <vehicle id="bottom1_right3.16" depart="53.33" color="150,0,0">
        <route edges="bottom1B0 B0B1 B1B2 B2B3 B3C3 C3D3 D3E3 E3right3"/>
    </vehicle>
    <vehicle id="left1_right1.16" depart="53.33" color="150,150,150">
        <route edges="left1A1 A1B1 B1C1 C1D1 D1E1 E1right1"/>
    </vehicle>
    <vehicle id="left3_bottom3.16" depart="53.33" color="0,0,150">
        <route edges="left3A3 A3B3 B3C3 C3D3 D3D2 D2D1 D1D0 D0bottom3"/>
    </vehicle>
    <vehicle id="left4_bottom4.16" depart="53.33" color="green">
        <route edges="left4A4 A4B4 B4C4 C4D4 D4E4 E4E3 E3E2 E2E1 E1E0 E0bottom4"/>
    </vehicle>
    <vehicle id="right0_top0.16" depart="53.33" color="yellow">
        <route edges="right0E0 E0D0 D0C0 C0B0 B0A0 A0A1 A1A2 A2A3 A3A4 A4top0"/>
    </vehicle>
    <vehicle id="right1_top1.16" depart="53.33" color="150,150,0">
        <route edges="right1E1 E1D1 D1C1 C1B1 B1B2 B2B3 B3B4 B4top1"/>
    </vehicle>
    <vehicle id="right3_left3.16" depart="53.33" color="150,150,150">
        <route edges="right3E3 E3D3 D3C3 C3B3 B3A3 A3left3"/>
    </vehicle>
    <vehicle id="top3_left1.16" depart="53.33" color="0,150,0">
        <route edges="top3D4 D4D3 D3D2 D2D1 D1C1 C1B1 B1A1 A1left1"/>
    </vehicle>
    <vehicle id="top4_left0.16" depart="53.33" color="blue">
        <route edges="top4E4 E4E3 E3E2 E2E1 E1E0 E0D0 D0C0 C0B0 B0A0 A0left0"/>
    </vehicle>
    <vehicle id="bottom0_right4.17" depart="56.66" color="red">
        <route edges="bottom0A0 A0A1 A1A2 A2A3 A3A4 A4B4 B4C4 C4D4 D4E4 E4right4"/>
    </vehicle>