<?xml version="1.0" encoding="UTF-8"?>

<!-- generated on Thu May  7 15:14:02 2020 by Eclipse SUMO duarouter Version 1.5.0
<configuration xmlns:xsi="http://www.w3.org/2001/XMLSchema-instance" xsi:noNamespaceSchemaLocation="http://sumo.dlr.de/xsd/duarouterConfiguration.xsd">

    <input>
        <net-file value="../5x5.net.xml"/>
        <route-files value="5x5_098.rou.alt.xml"/>
        <weight-files value="dump_098_900.xml"/>
    </input>

    <output>
        <output-file value="5x5_099.rou.xml"/>
        <alternatives-output value="5x5_099.rou.alt.xml"/>
        <exit-times value="false"/>
    </output>

    <processing>
        <max-alternatives value="5"/>
        <with-taz value="false"/>
        <weights.expand value="true"/>
        <routing-algorithm value="dijkstra"/>
        <gawron.beta value="0.9"/>
        <gawron.a value="0.5"/>
        <keep-all-routes value="false"/>
        <logit value="false"/>
        <logit.beta value="0.15"/>
        <logit.gamma value="1"/>
    </processing>

    <time>
        <begin value="0"/>
    </time>

    <report>
        <verbose value="false"/>
        <no-warnings value="false"/>
        <ignore-errors value="false"/>
        <no-step-log value="true"/>
    </report>

    <random_number>
        <random value="false"/>
    </random_number>

</configuration>
-->

<routes xmlns:xsi="http://www.w3.org/2001/XMLSchema-instance" xsi:noNamespaceSchemaLocation="http://sumo.dlr.de/xsd/routes_file.xsd">
    <vehicle id="0.0.0" depart="0.00">
        <route edges="bottom0A0 A0B0 B0C0 C0D0 D0D1 D1D2 D2D3 D3E3 E3E4 E4top4"/>
    </vehicle>
    <vehicle id="0.1.0" depart="0.00">
        <route edges="bottom1B0 B0B1 B1B2 B2B3 B3C3 C3C4 C4D4 D4top3"/>
    </vehicle>
    <vehicle id="0.3.0" depart="0.00">
        <route edges="bottom3D0 D0C0 C0C1 C1C2 C2C3 C3C4 C4B4 B4top1"/>
    </vehicle>
    <vehicle id="0.4.0" depart="0.00">
        <route edges="bottom4E0 E0E1 E1E2 E2E3 E3E4 E4D4 D4C4 C4B4 B4A4 A4top0"/>
    </vehicle>
    <vehicle id="0.5.0" depart="0.00">
        <route edges="left0A0 A0A1 A1A2 A2B2 B2B3 B3B4 B4C4 C4D4 D4E4 E4right4"/>
    </vehicle>
    <vehicle id="0.6.0" depart="0.00">
        <route edges="left1A1 A1B1 B1C1 C1C2 C2D2 D2E2 E2E3 E3right3"/>
    </vehicle>
    <vehicle id="0.8.0" depart="0.00">
        <route edges="left3A3 A3B3 B3C3 C3C2 C2C1 C1D1 D1E1 E1right1"/>
    </vehicle>
    <vehicle id="0.9.0" depart="0.00">
        <route edges="left4A4 A4B4 B4C4 C4D4 D4D3 D3D2 D2D1 D1D0 D0E0 E0right0"/>
    </vehicle>
    <vehicle id="0.0.1" depart="0.98">
        <route edges="bottom0A0 A0B0 B0C0 C0D0 D0E0 E0E1 E1E2 E2E3 E3E4 E4top4"/>
    </vehicle>
    <vehicle id="0.4.1" depart="0.98">
        <route edges="bottom4E0 E0E1 E1D1 D1C1 C1B1 B1A1 A1A2 A2A3 A3A4 A4top0"/>
    </vehicle>
    <vehicle id="0.5.1" depart="0.98">
        <route edges="left0A0 A0B0 B0B1 B1C1 C1D1 D1E1 E1E2 E2E3 E3E4 E4right4"/>
    </vehicle>
    <vehicle id="0.9.1" depart="0.98">
        <route edges="left4A4 A4B4 B4B3 B3B2 B2B1 B1B0 B0C0 C0D0 D0E0 E0right0"/>
    </vehicle>
    <vehicle id="0.1.1" depart="1.16">
        <route edges="bottom1B0 B0B1 B1C1 C1C2 C2C3 C3D3 D3D4 D4top3"/>
    </vehicle>
    <vehicle id="0.3.1" depart="1.16">
        <route edges="bottom3D0 D0C0 C0C1 C1C2 C2C3 C3B3 B3B4 B4top1"/>
    </vehicle>
    <vehicle id="0.6.1" depart="1.16">
        <route edges="left1A1 A1A2 A2B2 B2B3 B3C3 C3D3 D3E3 E3right3"/>
    </vehicle>
    <vehicle id="0.8.1" depart="1.16">
        <route edges="left3A3 A3A2 A2B2 B2C2 C2D2 D2D1 D1E1 E1right1"/>
    </vehicle>
    <vehicle id="0.0.2" depart="1.96">
        <route edges="bottom0A0 A0B0 B0B1 B1C1 C1D1 D1E1 E1E2 E2E3 E3E4 E4top4"/>
    </vehicle>
    <vehicle id="0.4.2" depart="1.96">
        <route edges="bottom4E0 E0E1 E1E2 E2D2 D2C2 C2B2 B2A2 A2A3 A3A4 A4top0"/>
    </vehicle>
    <vehicle id="0.5.2" depart="1.96">
        <route edges="left0A0 A0A1 A1B1 B1C1 C1C2 C2C3 C3D3 D3D4 D4E4 E4right4"/>
    </vehicle>
    <vehicle id="0.9.2" depart="1.96">
        <route edges="left4A4 A4B4 B4B3 B3B2 B2B1 B1B0 B0C0 C0D0 D0E0 E0right0"/>
    </vehicle>
    <vehicle id="0.1.2" depart="2.32">
        <route edges="bottom1B0 B0B1 B1B2 B2C2 C2C3 C3C4 C4D4 D4top3"/>
    </vehicle>
    <vehicle id="0.3.2" depart="2.32">
        <route edges="bottom3D0 D0D1 D1D2 D2D3 D3C3 C3B3 B3B4 B4top1"/>
    </vehicle>
    <vehicle id="0.6.2" depart="2.32">
        <route edges="left1A1 A1A2 A2B2 B2B3 B3C3 C3D3 D3E3 E3right3"/>
    </vehicle>
    <vehicle id="0.8.2" depart="2.32">
        <route edges="left3A3 A3B3 B3C3 C3D3 D3D2 D2E2 E2E1 E1right1"/>
    </vehicle>
    <vehicle id="0.0.3" depart="2.94">
        <route edges="bottom0A0 A0B0 B0C0 C0D0 D0D1 D1D2 D2D3 D3E3 E3E4 E4top4"/>
    </vehicle>
    <vehicle id="0.4.3" depart="2.94">
        <route edges="bottom4E0 E0E1 E1D1 D1C1 C1B1 B1A1 A1A2 A2A3 A3A4 A4top0"/>
    </vehicle>
    <vehicle id="0.5.3" depart="2.94">
        <route edges="left0A0 A0B0 B0C0 C0D0 D0D1 D1D2 D2D3 D3E3 E3E4 E4right4"/>
    </vehicle>
    <vehicle id="0.9.3" depart="2.94">
        <route edges="left4A4 A4B4 B4C4 C4D4 D4D3 D3D2 D2D1 D1D0 D0E0 E0right0"/>
    </vehicle>
    <vehicle id="0.1.3" depart="3.49">
        <route edges="bottom1B0 B0B1 B1B2 B2B3 B3B4 B4C4 C4D4 D4top3"/>
    </vehicle>
    <vehicle id="0.3.3" depart="3.49">
        <route edges="bottom3D0 D0C0 C0C1 C1C2 C2C3 C3C4 C4B4 B4top1"/>
    </vehicle>
    <vehicle id="0.6.3" depart="3.49">
        <route edges="left1A1 A1B1 B1C1 C1C2 C2D2 D2E2 E2E3 E3right3"/>
    </vehicle>
    <vehicle id="0.8.3" depart="3.49">
        <route edges="left3A3 A3A2 A2B2 B2C2 C2D2 D2D1 D1E1 E1right1"/>
    </vehicle>
    <vehicle id="0.0.4" depart="3.92">
        <route edges="bottom0A0 A0A1 A1A2 A2B2 B2B3 B3B4 B4C4 C4D4 D4E4 E4top4"/>
    </vehicle>
    <vehicle id="0.4.4" depart="3.92">
        <route edges="bottom4E0 E0D0 D0C0 C0C1 C1C2 C2C3 C3B3 B3B4 B4A4 A4top0"/>
    </vehicle>
    <vehicle id="0.5.4" depart="3.92">
        <route edges="left0A0 A0B0 B0C0 C0D0 D0D1 D1D2 D2D3 D3E3 E3E4 E4right4"/>
    </vehicle>
    <vehicle id="0.9.4" depart="3.92">
        <route edges="left4A4 A4A3 A3A2 A2B2 B2C2 C2D2 D2D1 D1D0 D0E0 E0right0"/>
    </vehicle>
    <vehicle id="0.1.4" depart="4.65">
        <route edges="bottom1B0 B0B1 B1B2 B2B3 B3C3 C3C4 C4D4 D4top3"/>
    </vehicle>
    <vehicle id="0.3.4" depart="4.65">
        <route edges="bottom3D0 D0C0 C0C1 C1C2 C2C3 C3B3 B3B4 B4top1"/>
    </vehicle>
    <vehicle id="0.6.4" depart="4.65">
        <route edges="left1A1 A1B1 B1C1 C1C2 C2D2 D2E2 E2E3 E3right3"/>
    </vehicle>
    <vehicle id="0.8.4" depart="4.65">
        <route edges="left3A3 A3B3 B3C3 C3D3 D3E3 E3E2 E2E1 E1right1"/>
    </vehicle>
    <vehicle id="0.0.5" depart="4.90">
        <route edges="bottom0A0 A0A1 A1B1 B1C1 C1C2 C2C3 C3D3 D3D4 D4E4 E4top4"/>
    </vehicle>
    <vehicle id="0.4.5" depart="4.90">
        <route edges="bottom4E0 E0E1 E1E2 E2D2 D2C2 C2B2 B2A2 A2A3 A3A4 A4top0"/>
    </vehicle>
    <vehicle id="0.5.5" depart="4.90">
        <route edges="left0A0 A0A1 A1B1 B1C1 C1C2 C2C3 C3D3 D3D4 D4E4 E4right4"/>
    </vehicle>
    <vehicle id="0.9.5" depart="4.90">
        <route edges="left4A4 A4A3 A3A2 A2B2 B2C2 C2D2 D2D1 D1D0 D0E0 E0right0"/>
    </vehicle>
    <vehicle id="0.1.5" depart="5.81">
        <route edges="bottom1B0 B0B1 B1B2 B2C2 C2C3 C3C4 C4D4 D4top3"/>
    </vehicle>
    <vehicle id="0.3.5" depart="5.81">
        <route edges="bottom3D0 D0D1 D1D2 D2D3 D3C3 C3B3 B3B4 B4top1"/>
    </vehicle>
    <vehicle id="0.6.5" depart="5.81">
        <route edges="left1A1 A1B1 B1C1 C1D1 D1E1 E1E2 E2E3 E3right3"/>
    </vehicle>
    <vehicle id="0.8.5" depart="5.81">
        <route edges="left3A3 A3B3 B3C3 C3C2 C2C1 C1D1 D1E1 E1right1"/>
    </vehicle>
    <vehicle id="0.0.6" depart="5.88">
        <route edges="bottom0A0 A0B0 B0B1 B1C1 C1D1 D1E1 E1E2 E2E3 E3E4 E4top4"/>
    </vehicle>
    <vehicle id="0.4.6" depart="5.88">
        <route edges="bottom4E0 E0E1 E1D1 D1C1 C1B1 B1A1 A1A2 A2A3 A3A4 A4top0"/>
    </vehicle>
    <vehicle id="0.5.6" depart="5.88">
        <route edges="left0A0 A0A1 A1A2 A2B2 B2B3 B3B4 B4C4 C4D4 D4E4 E4right4"/>
    </vehicle>
    <vehicle id="0.9.6" depart="5.88">
        <route edges="left4A4 A4B4 B4C4 C4C3 C3C2 C2C1 C1C0 C0D0 D0E0 E0right0"/>
    </vehicle>
    <vehicle id="0.0.7" depart="6.86">
        <route edges="bottom0A0 A0A1 A1A2 A2B2 B2B3 B3B4 B4C4 C4D4 D4E4 E4top4"/>
    </vehicle>
    <vehicle id="0.4.7" depart="6.86">
        <route edges="bottom4E0 E0E1 E1E2 E2D2 D2C2 C2B2 B2A2 A2A3 A3A4 A4top0"/>
    </vehicle>
    <vehicle id="0.5.7" depart="6.86">
        <route edges="left0A0 A0B0 B0C0 C0D0 D0D1 D1D2 D2D3 D3E3 E3E4 E4right4"/>
    </vehicle>
    <vehicle id="0.9.7" depart="6.86">
        <route edges="left4A4 A4B4 B4C4 C4D4 D4D3 D3D2 D2D1 D1D0 D0E0 E0right0"/>
    </vehicle>
    <vehicle id="0.1.6" depart="6.97">
        <route edges="bottom1B0 B0B1 B1B2 B2B3 B3B4 B4C4 C4D4 D4top3"/>
    </vehicle>
    <vehicle id="0.3.6" depart="6.97">
        <route edges="bottom3D0 D0D1 D1D2 D2D3 D3C3 C3B3 B3B4 B4top1"/>
    </vehicle>
    <vehicle id="0.6.6" depart="6.97">
        <route edges="left1A1 A1B1 B1C1 C1C2 C2D2 D2E2 E2E3 E3right3"/>
    </vehicle>
    <vehicle id="0.8.6" depart="6.97">
        <route edges="left3A3 A3B3 B3B2 B2C2 C2D2 D2E2 E2E1 E1right1"/>
    </vehicle>
    <vehicle id="0.0.8" depart="7.84">
        <route edges="bottom0A0 A0B0 B0B1 B1C1 C1D1 D1E1 E1E2 E2E3 E3E4 E4top4"/>
    </vehicle>
    <vehicle id="0.4.8" depart="7.84">
        <route edges="bottom4E0 E0E1 E1E2 E2E3 E3E4 E4D4 D4C4 C4B4 B4A4 A4top0"/>
    </vehicle>
    <vehicle id="0.5.8" depart="7.84">
        <route edges="left0A0 A0B0 B0B1 B1C1 C1D1 D1E1 E1E2 E2E3 E3E4 E4right4"/>
    </vehicle>
    <vehicle id="0.9.8" depart="7.84">
        <route edges="left4A4 A4A3 A3A2 A2B2 B2C2 C2D2 D2D1 D1D0 D0E0 E0right0"/>
    </vehicle>
    <vehicle id="0.1.7" depart="8.13">
        <route edges="bottom1B0 B0B1 B1C1 C1C2 C2C3 C3D3 D3D4 D4top3"/>
    </vehicle>
    <vehicle id="0.3.7" depart="8.13">
        <route edges="bottom3D0 D0D1 D1D2 D2D3 D3C3 C3B3 B3B4 B4top1"/>
    </vehicle>
    <vehicle id="0.6.7" depart="8.13">
        <route edges="left1A1 A1B1 B1B2 B2C2 C2C3 C3D3 D3E3 E3right3"/>
    </vehicle>
    <vehicle id="0.8.7" depart="8.13">
        <route edges="left3A3 A3B3 B3C3 C3D3 D3E3 E3E2 E2E1 E1right1"/>
    </vehicle>
    <vehicle id="0.0.9" depart="8.82">
        <route edges="bottom0A0 A0B0 B0B1 B1C1 C1D1 D1E1 E1E2 E2E3 E3E4 E4top4"/>
    </vehicle>
    <vehicle id="0.4.9" depart="8.82">
        <route edges="bottom4E0 E0E1 E1E2 E2D2 D2C2 C2B2 B2A2 A2A3 A3A4 A4top0"/>
    </vehicle>
    <vehicle id="0.5.9" depart="8.82">
        <route edges="left0A0 A0A1 A1B1 B1C1 C1C2 C2C3 C3D3 D3D4 D4E4 E4right4"/>
    </vehicle>
    <vehicle id="0.9.9" depart="8.82">
        <route edges="left4A4 A4B4 B4C4 C4D4 D4D3 D3D2 D2D1 D1D0 D0E0 E0right0"/>
    </vehicle>
    <vehicle id="0.1.8" depart="9.30">
        <route edges="bottom1B0 B0B1 B1B2 B2C2 C2C3 C3C4 C4D4 D4top3"/>
    </vehicle>
    <vehicle id="0.3.8" depart="9.30">
        <route edges="bottom3D0 D0D1 D1D2 D2D3 D3C3 C3B3 B3B4 B4top1"/>
    </vehicle>
    <vehicle id="0.6.8" depart="9.30">
        <route edges="left1A1 A1B1 B1C1 C1C2 C2D2 D2E2 E2E3 E3right3"/>
    </vehicle>
    <vehicle id="0.8.8" depart="9.30">
        <route edges="left3A3 A3B3 B3C3 C3D3 D3E3 E3E2 E2E1 E1right1"/>
    </vehicle>
    <vehicle id="0.0.10" depart="9.80">
        <route edges="bottom0A0 A0B0 B0B1 B1C1 C1D1 D1E1 E1E2 E2E3 E3E4 E4top4"/>
    </vehicle>
    <vehicle id="0.4.10" depart="9.80">
        <route edges="bottom4E0 E0D0 D0C0 C0C1 C1C2 C2C3 C3B3 B3B4 B4A4 A4top0"/>
    </vehicle>
    <vehicle id="0.5.10" depart="9.80">
        <route edges="left0A0 A0A1 A1A2 A2B2 B2B3 B3B4 B4C4 C4D4 D4E4 E4right4"/>
    </vehicle>
    <vehicle id="0.9.10" depart="9.80">
        <route edges="left4A4 A4B4 B4C4 C4D4 D4D3 D3D2 D2D1 D1D0 D0E0 E0right0"/>
    </vehicle>
    <vehicle id="0.1.9" depart="10.46">
        <route edges="bottom1B0 B0B1 B1C1 C1C2 C2C3 C3D3 D3D4 D4top3"/>
    </vehicle>
    <vehicle id="0.3.9" depart="10.46">
        <route edges="bottom3D0 D0C0 C0C1 C1C2 C2C3 C3C4 C4B4 B4top1"/>
    </vehicle>
    <vehicle id="0.6.9" depart="10.46">
        <route edges="left1A1 A1A2 A2A3 A3B3 B3C3 C3D3 D3E3 E3right3"/>
    </vehicle>
    <vehicle id="0.8.9" depart="10.46">
        <route edges="left3A3 A3A2 A2B2 B2C2 C2D2 D2D1 D1E1 E1right1"/>
    </vehicle>
    <vehicle id="0.0.11" depart="10.78">
        <route edges="bottom0A0 A0B0 B0C0 C0D0 D0E0 E0E1 E1E2 E2E3 E3E4 E4top4"/>
    </vehicle>
    <vehicle id="0.4.11" depart="10.78">
        <route edges="bottom4E0 E0D0 D0C0 C0C1 C1C2 C2C3 C3B3 B3B4 B4A4 A4top0"/>
    </vehicle>
    <vehicle id="0.5.11" depart="10.78">
        <route edges="left0A0 A0A1 A1A2 A2B2 B2B3 B3B4 B4C4 C4D4 D4E4 E4right4"/>
    </vehicle>
    <vehicle id="0.9.11" depart="10.78">
        <route edges="left4A4 A4B4 B4C4 C4D4 D4E4 E4E3 E3E2 E2E1 E1E0 E0right0"/>
    </vehicle>
    <vehicle id="0.1.10" depart="11.62">
        <route edges="bottom1B0 B0B1 B1B2 B2B3 B3B4 B4C4 C4D4 D4top3"/>
    </vehicle>
    <vehicle id="0.3.10" depart="11.62">
        <route edges="bottom3D0 D0C0 C0C1 C1C2 C2C3 C3B3 B3B4 B4top1"/>
    </vehicle>
    <vehicle id="0.6.10" depart="11.62">
        <route edges="left1A1 A1B1 B1C1 C1D1 D1E1 E1E2 E2E3 E3right3"/>
    </vehicle>
    <vehicle id="0.8.10" depart="11.62">
        <route edges="left3A3 A3B3 B3B2 B2C2 C2D2 D2E2 E2E1 E1right1"/>
    </vehicle>
    <vehicle id="0.0.12" depart="11.76">
        <route edges="bottom0A0 A0B0 B0B1 B1C1 C1D1 D1E1 E1E2 E2E3 E3E4 E4top4"/>
    </vehicle>
    <vehicle id="0.4.12" depart="11.76">
        <route edges="bottom4E0 E0D0 D0C0 C0C1 C1C2 C2C3 C3B3 B3B4 B4A4 A4top0"/>
    </vehicle>
    <vehicle id="0.5.12" depart="11.76">
        <route edges="left0A0 A0B0 B0B1 B1C1 C1D1 D1E1 E1E2 E2E3 E3E4 E4right4"/>
    </vehicle>
    <vehicle id="0.9.12" depart="11.76">
        <route edges="left4A4 A4B4 B4B3 B3B2 B2B1 B1B0 B0C0 C0D0 D0E0 E0right0"/>
    </vehicle>
    <vehicle id="0.0.13" depart="12.74">
        <route edges="bottom0A0 A0B0 B0C0 C0D0 D0E0 E0E1 E1E2 E2E3 E3E4 E4top4"/>
    </vehicle>
    <vehicle id="0.4.13" depart="12.74">
        <route edges="bottom4E0 E0E1 E1E2 E2D2 D2C2 C2B2 B2A2 A2A3 A3A4 A4top0"/>
    </vehicle>
    <vehicle id="0.5.13" depart="12.74">
        <route edges="left0A0 A0A1 A1A2 A2B2 B2B3 B3B4 B4C4 C4D4 D4E4 E4right4"/>
    </vehicle>
    <vehicle id="0.9.13" depart="12.74">
        <route edges="left4A4 A4B4 B4C4 C4D4 D4D3 D3D2 D2D1 D1D0 D0E0 E0right0"/>
    </vehicle>
    <vehicle id="0.1.11" depart="12.78">
        <route edges="bottom1B0 B0B1 B1B2 B2B3 B3C3 C3C4 C4D4 D4top3"/>
    </vehicle>
    <vehicle id="0.3.11" depart="12.78">
        <route edges="bottom3D0 D0C0 C0C1 C1C2 C2C3 C3B3 B3B4 B4top1"/>
    </vehicle>
    <vehicle id="0.6.11" depart="12.78">
        <route edges="left1A1 A1B1 B1B2 B2C2 C2C3 C3D3 D3E3 E3right3"/>
    </vehicle>
    <vehicle id="0.8.11" depart="12.78">
        <route edges="left3A3 A3B3 B3C3 C3D3 D3D2 D2E2 E2E1 E1right1"/>
    </vehicle>
    <vehicle id="0.0.14" depart="13.72">
        <route edges="bottom0A0 A0B0 B0C0 C0D0 D0D1 D1D2 D2D3 D3E3 E3E4 E4top4"/>
    </vehicle>
    <vehicle id="0.4.14" depart="13.72">
        <route edges="bottom4E0 E0D0 D0C0 C0C1 C1C2 C2C3 C3B3 B3B4 B4A4 A4top0"/>
    </vehicle>
    <vehicle id="0.5.14" depart="13.72">
        <route edges="left0A0 A0A1 A1B1 B1C1 C1C2 C2C3 C3D3 D3D4 D4E4 E4right4"/>
    </vehicle>
    <vehicle id="0.9.14" depart="13.72">
        <route edges="left4A4 A4B4 B4C4 C4D4 D4D3 D3D2 D2D1 D1D0 D0E0 E0right0"/>
    </vehicle>
    <vehicle id="0.1.12" depart="13.94">
        <route edges="bottom1B0 B0B1 B1B2 B2B3 B3B4 B4C4 C4D4 D4top3"/>
    </vehicle>
    <vehicle id="0.3.12" depart="13.94">
        <route edges="bottom3D0 D0C0 C0C1 C1C2 C2C3 C3C4 C4B4 B4top1"/>
    </vehicle>
    <vehicle id="0.6.12" depart="13.94">
        <route edges="left1A1 A1A2 A2B2 B2B3 B3C3 C3D3 D3E3 E3right3"/>
    </vehicle>
    <vehicle id="0.8.12" depart="13.94">
        <route edges="left3A3 A3B3 B3C3 C3C2 C2C1 C1D1 D1E1 E1right1"/>
    </vehicle>
    <vehicle id="0.0.15" depart="14.70">
        <route edges="bottom0A0 A0A1 A1A2 A2B2 B2B3 B3B4 B4C4 C4D4 D4E4 E4top4"/>
    </vehicle>
    <vehicle id="0.4.15" depart="14.70">
        <route edges="bottom4E0 E0D0 D0C0 C0C1 C1C2 C2C3 C3B3 B3B4 B4A4 A4top0"/>
    </vehicle>
    <vehicle id="0.5.15" depart="14.70">
        <route edges="left0A0 A0A1 A1A2 A2B2 B2B3 B3B4 B4C4 C4D4 D4E4 E4right4"/>
    </vehicle>
    <vehicle id="0.9.15" depart="14.70">
        <route edges="left4A4 A4A3 A3A2 A2B2 B2C2 C2D2 D2D1 D1D0 D0E0 E0right0"/>
    </vehicle>
    <vehicle id="0.1.13" depart="15.11">
        <route edges="bottom1B0 B0B1 B1B2 B2B3 B3C3 C3C4 C4D4 D4top3"/>
    </vehicle>
    <vehicle id="0.3.13" depart="15.11">
        <route edges="bottom3D0 D0C0 C0C1 C1C2 C2C3 C3C4 C4B4 B4top1"/>
    </vehicle>
    <vehicle id="0.6.13" depart="15.11">
        <route edges="left1A1 A1B1 B1B2 B2C2 C2C3 C3D3 D3E3 E3right3"/>
    </vehicle>
    <vehicle id="0.8.13" depart="15.11">
        <route edges="left3A3 A3A2 A2B2 B2C2 C2D2 D2D1 D1E1 E1right1"/>
    </vehicle>
    <vehicle id="0.0.16" depart="15.68">
        <route edges="bottom0A0 A0B0 B0C0 C0D0 D0E0 E0E1 E1E2 E2E3 E3E4 E4top4"/>
    </vehicle>
    <vehicle id="0.4.16" depart="15.68">
        <route edges="bottom4E0 E0D0 D0C0 C0C1 C1C2 C2C3 C3B3 B3B4 B4A4 A4top0"/>
    </vehicle>
    <vehicle id="0.5.16" depart="15.68">
        <route edges="left0A0 A0A1 A1B1 B1C1 C1C2 C2C3 C3D3 D3D4 D4E4 E4right4"/>
    </vehicle>
    <vehicle id="0.9.16" depart="15.68">
        <route edges="left4A4 A4B4 B4B3 B3B2 B2B1 B1B0 B0C0 C0D0 D0E0 E0right0"/>
    </vehicle>
    <vehicle id="0.1.14" depart="16.27">
        <route edges="bottom1B0 B0B1 B1B2 B2B3 B3C3 C3C4 C4D4 D4top3"/>
    </vehicle>
    <vehicle id="0.3.14" depart="16.27">
        <route edges="bottom3D0 D0D1 D1D2 D2D3 D3D4 D4C4 C4B4 B4top1"/>
    </vehicle>
    <vehicle id="0.6.14" depart="16.27">
        <route edges="left1A1 A1B1 B1C1 C1C2 C2D2 D2E2 E2E3 E3right3"/>
    </vehicle>
    <vehicle id="0.8.14" depart="16.27">
        <route edges="left3A3 A3B3 B3B2 B2C2 C2D2 D2E2 E2E1 E1right1"/>
    </vehicle>
    <vehicle id="0.0.17" depart="16.66">
        <route edges="bottom0A0 A0A1 A1B1 B1C1 C1C2 C2C3 C3D3 D3D4 D4E4 E4top4"/>
    </vehicle>
    <vehicle id="0.4.17" depart="16.66">
        <route edges="bottom4E0 E0E1 E1D1 D1C1 C1B1 B1A1 A1A2 A2A3 A3A4 A4top0"/>
    </vehicle>
    <vehicle id="0.5.17" depart="16.66">
        <route edges="left0A0 A0A1 A1B1 B1C1 C1C2 C2C3 C3D3 D3D4 D4E4 E4right4"/>
    </vehicle>
    <vehicle id="0.9.17" depart="16.66">
        <route edges="left4A4 A4B4 B4C4 C4C3 C3C2 C2C1 C1C0 C0D0 D0E0 E0right0"/>
    </vehicle>
    <vehicle id="0.1.15" depart="17.43">
        <route edges="bottom1B0 B0B1 B1C1 C1C2 C2C3 C3D3 D3D4 D4top3"/>
    </vehicle>
    <vehicle id="0.3.15" depart="17.43">
        <route edges="bottom3D0 D0C0 C0C1 C1C2 C2C3 C3B3 B3B4 B4top1"/>
    </vehicle>
    <vehicle id="0.6.15" depart="17.43">
        <route edges="left1A1 A1A2 A2A3 A3B3 B3C3 C3D3 D3E3 E3right3"/>
    </vehicle>
    <vehicle id="0.8.15" depart="17.43">
        <route edges="left3A3 A3B3 B3C3 C3D3 D3D2 D2E2 E2E1 E1right1"/>
    </vehicle>
    <vehicle id="0.0.18" depart="17.64">
        <route edges="bottom0A0 A0B0 B0C0 C0D0 D0E0 E0E1 E1E2 E2E3 E3E4 E4top4"/>
    </vehicle>
    <vehicle id="0.4.18" depart="17.64">
        <route edges="bottom4E0 E0D0 D0C0 C0C1 C1C2 C2C3 C3B3 B3B4 B4A4 A4top0"/>
    </vehicle>
    <vehicle id="0.5.18" depart="17.64">
        <route edges="left0A0 A0B0 B0C0 C0D0 D0D1 D1D2 D2D3 D3E3 E3E4 E4right4"/>
    </vehicle>
    <vehicle id="0.9.18" depart="17.64">
        <route edges="left4A4 A4B4 B4C4 C4C3 C3C2 C2C1 C1C0 C0D0 D0E0 E0right0"/>
    </vehicle>
    <vehicle id="0.1.16" depart="18.59">
        <route edges="bottom1B0 B0B1 B1B2 B2B3 B3B4 B4C4 C4D4 D4top3"/>
    </vehicle>
    <vehicle id="0.3.16" depart="18.59">
        <route edges="bottom3D0 D0D1 D1D2 D2D3 D3D4 D4C4 C4B4 B4top1"/>
    </vehicle>
    <vehicle id="0.6.16" depart="18.59">
        <route edges="left1A1 A1A2 A2B2 B2B3 B3C3 C3D3 D3E3 E3right3"/>
    </vehicle>
    <vehicle id="0.8.16" depart="18.59">
        <route edges="left3A3 A3B3 B3C3 C3D3 D3E3 E3E2 E2E1 E1right1"/>
    </vehicle>
    <vehicle id="0.0.19" depart="18.62">
        <route edges="bottom0A0 A0B0 B0C0 C0D0 D0D1 D1D2 D2D3 D3E3 E3E4 E4top4"/>
    </vehicle>
    <vehicle id="0.4.19" depart="18.62">
        <route edges="bottom4E0 E0E1 E1E2 E2D2 D2C2 C2B2 B2A2 A2A3 A3A4 A4top0"/>
    </vehicle>
    <vehicle id="0.5.19" depart="18.62">
        <route edges="left0A0 A0A1 A1A2 A2B2 B2B3 B3B4 B4C4 C4D4 D4E4 E4right4"/>
    </vehicle>
    <vehicle id="0.9.19" depart="18.62">
        <route edges="left4A4 A4B4 B4B3 B3B2 B2B1 B1B0 B0C0 C0D0 D0E0 E0right0"/>
    </vehicle>
    <vehicle id="0.0.20" depart="19.60">
        <route edges="bottom0A0 A0B0 B0B1 B1C1 C1D1 D1E1 E1E2 E2E3 E3E4 E4top4"/>
    </vehicle>
    <vehicle id="0.4.20" depart="19.60">
        <route edges="bottom4E0 E0D0 D0C0 C0C1 C1C2 C2C3 C3B3 B3B4 B4A4 A4top0"/>
    </vehicle>
    <vehicle id="0.5.20" depart="19.60">
        <route edges="left0A0 A0A1 A1A2 A2B2 B2B3 B3B4 B4C4 C4D4 D4E4 E4right4"/>
    </vehicle>
    <vehicle id="0.9.20" depart="19.60">
        <route edges="left4A4 A4B4 B4C4 C4C3 C3C2 C2C1 C1C0 C0D0 D0E0 E0right0"/>
    </vehicle>
    <vehicle id="0.1.17" depart="19.75">
        <route edges="bottom1B0 B0B1 B1C1 C1C2 C2C3 C3D3 D3D4 D4top3"/>
    </vehicle>
    <vehicle id="0.3.17" depart="19.75">
        <route edges="bottom3D0 D0C0 C0C1 C1C2 C2C3 C3C4 C4B4 B4top1"/>
    </vehicle>
    <vehicle id="0.6.17" depart="19.75">
        <route edges="left1A1 A1A2 A2A3 A3B3 B3C3 C3D3 D3E3 E3right3"/>
    </vehicle>
    <vehicle id="0.8.17" depart="19.75">
        <route edges="left3A3 A3B3 B3B2 B2C2 C2D2 D2E2 E2E1 E1right1"/>
    </vehicle>
    <vehicle id="0.0.21" depart="20.58">
        <route edges="bottom0A0 A0B0 B0B1 B1C1 C1D1 D1E1 E1E2 E2E3 E3E4 E4top4"/>
    </vehicle>
    <vehicle id="0.4.21" depart="20.58">
        <route edges="bottom4E0 E0E1 E1E2 E2E3 E3E4 E4D4 D4C4 C4B4 B4A4 A4top0"/>
    </vehicle>
    <vehicle id="0.5.21" depart="20.58">
        <route edges="left0A0 A0B0 B0C0 C0D0 D0D1 D1D2 D2D3 D3E3 E3E4 E4right4"/>
    </vehicle>
    <vehicle id="0.9.21" depart="20.58">
        <route edges="left4A4 A4B4 B4C4 C4D4 D4D3 D3D2 D2D1 D1D0 D0E0 E0right0"/>
    </vehicle>
    <vehicle id="0.1.18" depart="20.92">
        <route edges="bottom1B0 B0B1 B1B2 B2C2 C2C3 C3C4 C4D4 D4top3"/>
    </vehicle>
    <vehicle id="0.3.18" depart="20.92">
        <route edges="bottom3D0 D0D1 D1D2 D2D3 D3D4 D4C4 C4B4 B4top1"/>
    </vehicle>
    <vehicle id="0.6.18" depart="20.92">
        <route edges="left1A1 A1A2 A2A3 A3B3 B3C3 C3D3 D3E3 E3right3"/>
    </vehicle>
    <vehicle id="0.8.18" depart="20.92">
        <route edges="left3A3 A3A2 A2B2 B2C2 C2D2 D2D1 D1E1 E1right1"/>
    </vehicle>
    <vehicle id="0.0.22" depart="21.56">
        <route edges="bottom0A0 A0B0 B0C0 C0D0 D0D1 D1D2 D2D3 D3E3 E3E4 E4top4"/>
    </vehicle>
    <vehicle id="0.4.22" depart="21.56">
        <route edges="bottom4E0 E0E1 E1E2 E2E3 E3E4 E4D4 D4C4 C4B4 B4A4 A4top0"/>
    </vehicle>
    <vehicle id="0.5.22" depart="21.56">
        <route edges="left0A0 A0B0 B0C0 C0D0 D0D1 D1D2 D2D3 D3E3 E3E4 E4right4"/>
    </vehicle>
    <vehicle id="0.9.22" depart="21.56">
        <route edges="left4A4 A4B4 B4B3 B3B2 B2B1 B1B0 B0C0 C0D0 D0E0 E0right0"/>
    </vehicle>
    <vehicle id="0.1.19" depart="22.08">
        <route edges="bottom1B0 B0B1 B1C1 C1C2 C2C3 C3C4 C4D4 D4top3"/>
    </vehicle>
    <vehicle id="0.3.19" depart="22.08">
        <route edges="bottom3D0 D0D1 D1D2 D2D3 D3D4 D4C4 C4B4 B4top1"/>
    </vehicle>
    <vehicle id="0.6.19" depart="22.08">
        <route edges="left1A1 A1A2 A2B2 B2B3 B3C3 C3D3 D3E3 E3right3"/>
    </vehicle>
    <vehicle id="0.8.19" depart="22.08">
        <route edges="left3A3 A3B3 B3C3 C3D3 D3E3 E3E2 E2E1 E1right1"/>
    </vehicle>
    <vehicle id="0.0.23" depart="22.54">
        <route edges="bottom0A0 A0B0 B0B1 B1C1 C1D1 D1E1 E1E2 E2E3 E3E4 E4top4"/>
    </vehicle>
    <vehicle id="0.4.23" depart="22.54">
        <route edges="bottom4E0 E0E1 E1E2 E2E3 E3E4 E4D4 D4C4 C4B4 B4A4 A4top0"/>
    </vehicle>
    <vehicle id="0.5.23" depart="22.54">
        <route edges="left0A0 A0A1 A1B1 B1C1 C1C2 C2C3 C3D3 D3D4 D4E4 E4right4"/>
    </vehicle>
    <vehicle id="0.9.23" depart="22.54">
        <route edges="left4A4 A4B4 B4B3 B3B2 B2B1 B1B0 B0C0 C0D0 D0E0 E0right0"/>
    </vehicle>
    <vehicle id="0.1.20" depart="23.24">
        <route edges="bottom1B0 B0B1 B1C1 C1C2 C2C3 C3D3 D3D4 D4top3"/>
    </vehicle>
    <vehicle id="0.3.20" depart="23.24">
        <route edges="bottom3D0 D0C0 C0C1 C1C2 C2C3 C3B3 B3B4 B4top1"/>
    </vehicle>
    <vehicle id="0.6.20" depart="23.24">
        <route edges="left1A1 A1A2 A2A3 A3B3 B3C3 C3D3 D3E3 E3right3"/>
    </vehicle>
    <vehicle id="0.8.20" depart="23.24">
        <route edges="left3A3 A3B3 B3C3 C3D3 D3E3 E3E2 E2E1 E1right1"/>
    </vehicle>
    <vehicle id="0.0.24" depart="23.52">
        <route edges="bottom0A0 A0B0 B0C0 C0D0 D0E0 E0E1 E1E2 E2E3 E3E4 E4top4"/>
    </vehicle>
    <vehicle id="0.4.24" depart="23.52">
        <route edges="bottom4E0 E0D0 D0C0 C0C1 C1C2 C2C3 C3B3 B3B4 B4A4 A4top0"/>
    </vehicle>
    <vehicle id="0.5.24" depart="23.52">
        <route edges="left0A0 A0A1 A1A2 A2B2 B2B3 B3B4 B4C4 C4D4 D4E4 E4right4"/>
    </vehicle>
    <vehicle id="0.9.24" depart="23.52">
        <route edges="left4A4 A4A3 A3A2 A2B2 B2C2 C2D2 D2D1 D1D0 D0E0 E0right0"/>
    </vehicle>
    <vehicle id="0.1.21" depart="24.40">
        <route edges="bottom1B0 B0B1 B1B2 B2C2 C2C3 C3C4 C4D4 D4top3"/>
    </vehicle>
    <vehicle id="0.3.21" depart="24.40">
        <route edges="bottom3D0 D0C0 C0C1 C1C2 C2C3 C3C4 C4B4 B4top1"/>
    </vehicle>
    <vehicle id="0.6.21" depart="24.40">
        <route edges="left1A1 A1B1 B1C1 C1D1 D1E1 E1E2 E2E3 E3right3"/>
    </vehicle>
    <vehicle id="0.8.21" depart="24.40">
        <route edges="left3A3 A3B3 B3C3 C3D3 D3E3 E3E2 E2E1 E1right1"/>
    </vehicle>
    <vehicle id="0.0.25" depart="24.50">
        <route edges="bottom0A0 A0B0 B0C0 C0D0 D0D1 D1D2 D2D3 D3E3 E3E4 E4top4"/>
    </vehicle>
    <vehicle id="0.4.25" depart="24.50">
        <route edges="bottom4E0 E0D0 D0C0 C0C1 C1C2 C2C3 C3B3 B3B4 B4A4 A4top0"/>
    </vehicle>
    <vehicle id="0.5.25" depart="24.50">
        <route edges="left0A0 A0A1 A1B1 B1C1 C1C2 C2C3 C3D3 D3D4 D4E4 E4right4"/>
    </vehicle>
    <vehicle id="0.9.25" depart="24.50">
        <route edges="left4A4 A4B4 B4B3 B3B2 B2B1 B1B0 B0C0 C0D0 D0E0 E0right0"/>
    </vehicle>
    <vehicle id="0.0.26" depart="25.48">
        <route edges="bottom0A0 A0A1 A1B1 B1C1 C1C2 C2C3 C3D3 D3D4 D4E4 E4top4"/>
    </vehicle>
    <vehicle id="0.4.26" depart="25.48">
        <route edges="bottom4E0 E0D0 D0C0 C0C1 C1C2 C2C3 C3B3 B3B4 B4A4 A4top0"/>
    </vehicle>
    <vehicle id="0.5.26" depart="25.48">
        <route edges="left0A0 A0B0 B0B1 B1C1 C1D1 D1E1 E1E2 E2E3 E3E4 E4right4"/>
    </vehicle>
    <vehicle id="0.9.26" depart="25.48">
        <route edges="left4A4 A4B4 B4B3 B3B2 B2B1 B1B0 B0C0 C0D0 D0E0 E0right0"/>
    </vehicle>
    <vehicle id="0.1.22" depart="25.56">
        <route edges="bottom1B0 B0B1 B1B2 B2C2 C2C3 C3C4 C4D4 D4top3"/>
    </vehicle>
    <vehicle id="0.3.22" depart="25.56">
        <route edges="bottom3D0 D0D1 D1D2 D2D3 D3D4 D4C4 C4B4 B4top1"/>
    </vehicle>
    <vehicle id="0.6.22" depart="25.56">
        <route edges="left1A1 A1A2 A2B2 B2B3 B3C3 C3D3 D3E3 E3right3"/>
    </vehicle>
    <vehicle id="0.8.22" depart="25.56">
        <route edges="left3A3 A3B3 B3C3 C3C2 C2C1 C1D1 D1E1 E1right1"/>
    </vehicle>
    <vehicle id="0.0.27" depart="26.46">
        <route edges="bottom0A0 A0A1 A1B1 B1C1 C1C2 C2C3 C3D3 D3D4 D4E4 E4top4"/>
    </vehicle>
    <vehicle id="0.4.27" depart="26.46">
        <route edges="bottom4E0 E0D0 D0C0 C0C1 C1C2 C2C3 C3B3 B3B4 B4A4 A4top0"/>
    </vehicle>
    <vehicle id="0.5.27" depart="26.46">
        <route edges="left0A0 A0A1 A1A2 A2B2 B2B3 B3B4 B4C4 C4D4 D4E4 E4right4"/>
    </vehicle>
    <vehicle id="0.9.27" depart="26.46">
        <route edges="left4A4 A4A3 A3A2 A2B2 B2C2 C2D2 D2D1 D1D0 D0E0 E0right0"/>
    </vehicle>
    <vehicle id="0.1.23" depart="26.73">
        <route edges="bottom1B0 B0B1 B1B2 B2B3 B3C3 C3C4 C4D4 D4top3"/>
    </vehicle>
    <vehicle id="0.3.23" depart="26.73">
        <route edges="bottom3D0 D0C0 C0C1 C1C2 C2B2 B2B3 B3B4 B4top1"/>
    </vehicle>
    <vehicle id="0.6.23" depart="26.73">
        <route edges="left1A1 A1A2 A2A3 A3B3 B3C3 C3D3 D3E3 E3right3"/>
    </vehicle>
    <vehicle id="0.8.23" depart="26.73">
        <route edges="left3A3 A3B3 B3C3 C3D3 D3E3 E3E2 E2E1 E1right1"/>
    </vehicle>
    <vehicle id="0.0.28" depart="27.44">
        <route edges="bottom0A0 A0A1 A1B1 B1C1 C1C2 C2C3 C3D3 D3D4 D4E4 E4top4"/>
    </vehicle>
    <vehicle id="0.4.28" depart="27.44">
        <route edges="bottom4E0 E0D0 D0C0 C0C1 C1C2 C2C3 C3B3 B3B4 B4A4 A4top0"/>
    </vehicle>
    <vehicle id="0.5.28" depart="27.44">
        <route edges="left0A0 A0A1 A1A2 A2B2 B2B3 B3B4 B4C4 C4D4 D4E4 E4right4"/>
    </vehicle>
    <vehicle id="0.9.28" depart="27.44">
        <route edges="left4A4 A4A3 A3A2 A2B2 B2C2 C2D2 D2D1 D1D0 D0E0 E0right0"/>
    </vehicle>
    <vehicle id="0.1.24" depart="27.89">
        <route edges="bottom1B0 B0B1 B1C1 C1C2 C2C3 C3D3 D3D4 D4top3"/>
    </vehicle>
    <vehicle id="0.3.24" depart="27.89">
        <route edges="bottom3D0 D0C0 C0C1 C1C2 C2B2 B2B3 B3B4 B4top1"/>
    </vehicle>
    <vehicle id="0.6.24" depart="27.89">
        <route edges="left1A1 A1A2 A2A3 A3B3 B3C3 C3D3 D3E3 E3right3"/>
    </vehicle>