<?xml version="1.0" encoding="UTF-8"?>

<!-- generated on Mon Aug 26 09:20:17 2019 by Eclipse SUMO netgenerate Version 1.1.0
<configuration xmlns:xsi="http://www.w3.org/2001/XMLSchema-instance" xsi:noNamespaceSchemaLocation="http://sumo.dlr.de/xsd/netgenerateConfiguration.xsd">

    <grid_network>
        <grid value="true"/>
        <grid.attach-length value="30"/>
    </grid_network>

    <output>
        <output-file value="5x5.net.xml"/>
    </output>

    <junctions>
        <no-turnarounds value="true"/>
    </junctions>

</configuration>
-->

<net version="1.1" junctionCornerDetail="5" limitTurnSpeed="5.50" xmlns:xsi="http://www.w3.org/2001/XMLSchema-instance" xsi:noNamespaceSchemaLocation="http://sumo.dlr.de/xsd/net_file.xsd">

    <location netOffset="0.00,0.00" convBoundary="0.00,0.00,460.00,460.00" origBoundary="0.00,0.00,460.00,460.00" projParameter="!"/>

    <edge id=":A0_0" function="internal">
        <lane id=":A0_0_0" index="0" speed="6.51" length="9.03" shape="28.40,37.20 28.05,34.75 27.00,33.00 25.25,31.95 22.80,31.60"/>
    </edge>
    <edge id=":A0_1" function="internal">
        <lane id=":A0_1_0" index="0" speed="13.89" length="14.40" shape="28.40,37.20 28.40,22.80"/>
    </edge>
    <edge id=":A0_2" function="internal">
        <lane id=":A0_2_0" index="0" speed="8.00" length="5.93" shape="28.40,37.20 28.95,33.35 30.00,31.60"/>
    </edge>
    <edge id=":A0_12" function="internal">
        <lane id=":A0_12_0" index="0" speed="8.00" length="8.26" shape="30.00,31.60 30.60,30.60 33.35,28.95 37.20,28.40"/>
    </edge>
    <edge id=":A0_3" function="internal">
        <lane id=":A0_3_0" index="0" speed="6.51" length="9.03" shape="37.20,31.60 34.75,31.95 33.00,33.00 31.95,34.75 31.60,37.20"/>
    </edge>
    <edge id=":A0_4" function="internal">
        <lane id=":A0_4_0" index="0" speed="13.89" length="14.40" shape="37.20,31.60 22.80,31.60"/>
    </edge>
    <edge id=":A0_5" function="internal">
        <lane id=":A0_5_0" index="0" speed="8.00" length="14.19" shape="37.20,31.60 33.35,31.05 30.60,29.40 28.95,26.65 28.40,22.80"/>
    </edge>
    <edge id=":A0_6" function="internal">
        <lane id=":A0_6_0" index="0" speed="6.51" length="9.03" shape="31.60,22.80 31.95,25.25 33.00,27.00 34.75,28.05 37.20,28.40"/>
    </edge>
    <edge id=":A0_7" function="internal">
        <lane id=":A0_7_0" index="0" speed="13.89" length="14.40" shape="31.60,22.80 31.60,37.20"/>
    </edge>
    <edge id=":A0_8" function="internal">
        <lane id=":A0_8_0" index="0" speed="8.00" length="5.93" shape="31.60,22.80 31.05,26.65 30.00,28.40"/>
    </edge>
    <edge id=":A0_13" function="internal">
        <lane id=":A0_13_0" index="0" speed="8.00" length="8.26" shape="30.00,28.40 29.40,29.40 26.65,31.05 22.80,31.60"/>
    </edge>
    <edge id=":A0_9" function="internal">
        <lane id=":A0_9_0" index="0" speed="6.51" length="9.03" shape="22.80,28.40 25.25,28.05 27.00,27.00 28.05,25.25 28.40,22.80"/>
    </edge>
    <edge id=":A0_10" function="internal">
        <lane id=":A0_10_0" index="0" speed="13.89" length="14.40" shape="22.80,28.40 37.20,28.40"/>
    </edge>
    <edge id=":A0_11" function="internal">
        <lane id=":A0_11_0" index="0" speed="8.00" length="14.19" shape="22.80,28.40 26.65,28.95 29.40,30.60 31.05,33.35 31.60,37.20"/>
    </edge>
    <edge id=":A1_0" function="internal">
        <lane id=":A1_0_0" index="0" speed="6.51" length="9.03" shape="28.40,137.20 28.05,134.75 27.00,133.00 25.25,131.95 22.80,131.60"/>
    </edge>
    <edge id=":A1_1" function="internal">
        <lane id=":A1_1_0" index="0" speed="13.89" length="14.40" shape="28.40,137.20 28.40,122.80"/>
    </edge>
    <edge id=":A1_2" function="internal">
        <lane id=":A1_2_0" index="0" speed="8.00" length="5.93" shape="28.40,137.20 28.95,133.35 30.00,131.60"/>
    </edge>
    <edge id=":A1_12" function="internal">
        <lane id=":A1_12_0" index="0" speed="8.00" length="8.26" shape="30.00,131.60 30.60,130.60 33.35,128.95 37.20,128.40"/>
    </edge>
    <edge id=":A1_3" function="internal">
        <lane id=":A1_3_0" index="0" speed="6.51" length="9.03" shape="37.20,131.60 34.75,131.95 33.00,133.00 31.95,134.75 31.60,137.20"/>
    </edge>
    <edge id=":A1_4" function="internal">
        <lane id=":A1_4_0" index="0" speed="13.89" length="14.40" shape="37.20,131.60 22.80,131.60"/>
    </edge>
    <edge id=":A1_5" function="internal">
        <lane id=":A1_5_0" index="0" speed="8.00" length="14.19" shape="37.20,131.60 33.35,131.05 30.60,129.40 28.95,126.65 28.40,122.80"/>
    </edge>
    <edge id=":A1_6" function="internal">
        <lane id=":A1_6_0" index="0" speed="6.51" length="9.03" shape="31.60,122.80 31.95,125.25 33.00,127.00 34.75,128.05 37.20,128.40"/>
    </edge>
    <edge id=":A1_7" function="internal">
        <lane id=":A1_7_0" index="0" speed="13.89" length="14.40" shape="31.60,122.80 31.60,137.20"/>
    </edge>
    <edge id=":A1_8" function="internal">
        <lane id=":A1_8_0" index="0" speed="8.00" length="5.93" shape="31.60,122.80 31.05,126.65 30.00,128.40"/>
    </edge>
    <edge id=":A1_13" function="internal">
        <lane id=":A1_13_0" index="0" speed="8.00" length="8.26" shape="30.00,128.40 29.40,129.40 26.65,131.05 22.80,131.60"/>
    </edge>
    <edge id=":A1_9" function="internal">
        <lane id=":A1_9_0" index="0" speed="6.51" length="9.03" shape="22.80,128.40 25.25,128.05 27.00,127.00 28.05,125.25 28.40,122.80"/>
    </edge>
    <edge id=":A1_10" function="internal">
        <lane id=":A1_10_0" index="0" speed="13.89" length="14.40" shape="22.80,128.40 37.20,128.40"/>
    </edge>
    <edge id=":A1_11" function="internal">
        <lane id=":A1_11_0" index="0" speed="8.00" length="14.19" shape="22.80,128.40 26.65,128.95 29.40,130.60 31.05,133.35 31.60,137.20"/>
    </edge>
    <edge id=":A2_0" function="internal">
        <lane id=":A2_0_0" index="0" speed="6.51" length="9.03" shape="28.40,237.20 28.05,234.75 27.00,233.00 25.25,231.95 22.80,231.60"/>
    </edge>
    <edge id=":A2_1" function="internal">
        <lane id=":A2_1_0" index="0" speed="13.89" length="14.40" shape="28.40,237.20 28.40,222.80"/>
    </edge>
    <edge id=":A2_2" function="internal">
        <lane id=":A2_2_0" index="0" speed="8.00" length="5.93" shape="28.40,237.20 28.95,233.35 30.00,231.60"/>
    </edge>
    <edge id=":A2_12" function="internal">
        <lane id=":A2_12_0" index="0" speed="8.00" length="8.26" shape="30.00,231.60 30.60,230.60 33.35,228.95 37.20,228.40"/>
    </edge>
    <edge id=":A2_3" function="internal">
        <lane id=":A2_3_0" index="0" speed="6.51" length="9.03" shape="37.20,231.60 34.75,231.95 33.00,233.00 31.95,234.75 31.60,237.20"/>
    </edge>
    <edge id=":A2_4" function="internal">
        <lane id=":A2_4_0" index="0" speed="13.89" length="14.40" shape="37.20,231.60 22.80,231.60"/>
    </edge>
    <edge id=":A2_5" function="internal">
        <lane id=":A2_5_0" index="0" speed="8.00" length="14.19" shape="37.20,231.60 33.35,231.05 30.60,229.40 28.95,226.65 28.40,222.80"/>
    </edge>
    <edge id=":A2_6" function="internal">
        <lane id=":A2_6_0" index="0" speed="6.51" length="9.03" shape="31.60,222.80 31.95,225.25 33.00,227.00 34.75,228.05 37.20,228.40"/>
    </edge>
    <edge id=":A2_7" function="internal">
        <lane id=":A2_7_0" index="0" speed="13.89" length="14.40" shape="31.60,222.80 31.60,237.20"/>
    </edge>
    <edge id=":A2_8" function="internal">
        <lane id=":A2_8_0" index="0" speed="8.00" length="5.93" shape="31.60,222.80 31.05,226.65 30.00,228.40"/>
    </edge>
    <edge id=":A2_13" function="internal">
        <lane id=":A2_13_0" index="0" speed="8.00" length="8.26" shape="30.00,228.40 29.40,229.40 26.65,231.05 22.80,231.60"/>
    </edge>
    <edge id=":A2_9" function="internal">
        <lane id=":A2_9_0" index="0" speed="6.51" length="9.03" shape="22.80,228.40 25.25,228.05 27.00,227.00 28.05,225.25 28.40,222.80"/>
    </edge>
    <edge id=":A2_10" function="internal">
        <lane id=":A2_10_0" index="0" speed="13.89" length="14.40" shape="22.80,228.40 37.20,228.40"/>
    </edge>
    <edge id=":A2_11" function="internal">
        <lane id=":A2_11_0" index="0" speed="8.00" length="14.19" shape="22.80,228.40 26.65,228.95 29.40,230.60 31.05,233.35 31.60,237.20"/>
    </edge>
    <edge id=":A3_0" function="internal">
        <lane id=":A3_0_0" index="0" speed="6.51" length="9.03" shape="28.40,337.20 28.05,334.75 27.00,333.00 25.25,331.95 22.80,331.60"/>
    </edge>
    <edge id=":A3_1" function="internal">
        <lane id=":A3_1_0" index="0" speed="13.89" length="14.40" shape="28.40,337.20 28.40,322.80"/>
    </edge>
    <edge id=":A3_2" function="internal">
        <lane id=":A3_2_0" index="0" speed="8.00" length="5.93" shape="28.40,337.20 28.95,333.35 30.00,331.60"/>
    </edge>
    <edge id=":A3_12" function="internal">
        <lane id=":A3_12_0" index="0" speed="8.00" length="8.26" shape="30.00,331.60 30.60,330.60 33.35,328.95 37.20,328.40"/>
    </edge>
    <edge id=":A3_3" function="internal">
        <lane id=":A3_3_0" index="0" speed="6.51" length="9.03" shape="37.20,331.60 34.75,331.95 33.00,333.00 31.95,334.75 31.60,337.20"/>
    </edge>
    <edge id=":A3_4" function="internal">
        <lane id=":A3_4_0" index="0" speed="13.89" length="14.40" shape="37.20,331.60 22.80,331.60"/>
    </edge>
    <edge id=":A3_5" function="internal">
        <lane id=":A3_5_0" index="0" speed="8.00" length="14.19" shape="37.20,331.60 33.35,331.05 30.60,329.40 28.95,326.65 28.40,322.80"/>
    </edge>
    <edge id=":A3_6" function="internal">
        <lane id=":A3_6_0" index="0" speed="6.51" length="9.03" shape="31.60,322.80 31.95,325.25 33.00,327.00 34.75,328.05 37.20,328.40"/>
    </edge>
    <edge id=":A3_7" function="internal">
        <lane id=":A3_7_0" index="0" speed="13.89" length="14.40" shape="31.60,322.80 31.60,337.20"/>
    </edge>
    <edge id=":A3_8" function="internal">
        <lane id=":A3_8_0" index="0" speed="8.00" length="5.93" shape="31.60,322.80 31.05,326.65 30.00,328.40"/>
    </edge>
    <edge id=":A3_13" function="internal">
        <lane id=":A3_13_0" index="0" speed="8.00" length="8.26" shape="30.00,328.40 29.40,329.40 26.65,331.05 22.80,331.60"/>
    </edge>
    <edge id=":A3_9" function="internal">
        <lane id=":A3_9_0" index="0" speed="6.51" length="9.03" shape="22.80,328.40 25.25,328.05 27.00,327.00 28.05,325.25 28.40,322.80"/>
    </edge>
    <edge id=":A3_10" function="internal">
        <lane id=":A3_10_0" index="0" speed="13.89" length="14.40" shape="22.80,328.40 37.20,328.40"/>
    </edge>
    <edge id=":A3_11" function="internal">
        <lane id=":A3_11_0" index="0" speed="8.00" length="14.19" shape="22.80,328.40 26.65,328.95 29.40,330.60 31.05,333.35 31.60,337.20"/>
    </edge>
    <edge id=":A4_0" function="internal">
        <lane id=":A4_0_0" index="0" speed="6.51" length="9.03" shape="28.40,437.20 28.05,434.75 27.00,433.00 25.25,431.95 22.80,431.60"/>
    </edge>
    <edge id=":A4_1" function="internal">
        <lane id=":A4_1_0" index="0" speed="13.89" length="14.40" shape="28.40,437.20 28.40,422.80"/>
    </edge>
    <edge id=":A4_2" function="internal">
        <lane id=":A4_2_0" index="0" speed="8.00" length="5.93" shape="28.40,437.20 28.95,433.35 30.00,431.60"/>
    </edge>
    <edge id=":A4_12" function="internal">
        <lane id=":A4_12_0" index="0" speed="8.00" length="8.26" shape="30.00,431.60 30.60,430.60 33.35,428.95 37.20,428.40"/>
    </edge>
    <edge id=":A4_3" function="internal">
        <lane id=":A4_3_0" index="0" speed="6.51" length="9.03" shape="37.20,431.60 34.75,431.95 33.00,433.00 31.95,434.75 31.60,437.20"/>
    </edge>
    <edge id=":A4_4" function="internal">
        <lane id=":A4_4_0" index="0" speed="13.89" length="14.40" shape="37.20,431.60 22.80,431.60"/>
    </edge>
    <edge id=":A4_5" function="internal">
        <lane id=":A4_5_0" index="0" speed="8.00" length="14.19" shape="37.20,431.60 33.35,431.05 30.60,429.40 28.95,426.65 28.40,422.80"/>
    </edge>
    <edge id=":A4_6" function="internal">
        <lane id=":A4_6_0" index="0" speed="6.51" length="9.03" shape="31.60,422.80 31.95,425.25 33.00,427.00 34.75,428.05 37.20,428.40"/>
    </edge>
    <edge id=":A4_7" function="internal">
        <lane id=":A4_7_0" index="0" speed="13.89" length="14.40" shape="31.60,422.80 31.60,437.20"/>
    </edge>
    <edge id=":A4_8" function="internal">
        <lane id=":A4_8_0" index="0" speed="8.00" length="5.93" shape="31.60,422.80 31.05,426.65 30.00,428.40"/>
    </edge>
    <edge id=":A4_13" function="internal">
        <lane id=":A4_13_0" index="0" speed="8.00" length="8.26" shape="30.00,428.40 29.40,429.40 26.65,431.05 22.80,431.60"/>
    </edge>
    <edge id=":A4_9" function="internal">
        <lane id=":A4_9_0" index="0" speed="6.51" length="9.03" shape="22.80,428.40 25.25,428.05 27.00,427.00 28.05,425.25 28.40,422.80"/>
    </edge>
    <edge id=":A4_10" function="internal">
        <lane id=":A4_10_0" index="0" speed="13.89" length="14.40" shape="22.80,428.40 37.20,428.40"/>
    </edge>
    <edge id=":A4_11" function="internal">
        <lane id=":A4_11_0" index="0" speed="8.00" length="14.19" shape="22.80,428.40 26.65,428.95 29.40,430.60 31.05,433.35 31.60,437.20"/>
    </edge>
    <edge id=":B0_0" function="internal">
        <lane id=":B0_0_0" index="0" speed="6.51" length="9.03" shape="128.40,37.20 128.05,34.75 127.00,33.00 125.25,31.95 122.80,31.60"/>
    </edge>
    <edge id=":B0_1" function="internal">
        <lane id=":B0_1_0" index="0" speed="13.89" length="14.40" shape="128.40,37.20 128.40,22.80"/>
    </edge>
    <edge id=":B0_2" function="internal">
        <lane id=":B0_2_0" index="0" speed="8.00" length="5.93" shape="128.40,37.20 128.95,33.35 130.00,31.60"/>
    </edge>
    <edge id=":B0_12" function="internal">
        <lane id=":B0_12_0" index="0" speed="8.00" length="8.26" shape="130.00,31.60 130.60,30.60 133.35,28.95 137.20,28.40"/>
    </edge>
    <edge id=":B0_3" function="internal">
        <lane id=":B0_3_0" index="0" speed="6.51" length="9.03" shape="137.20,31.60 134.75,31.95 133.00,33.00 131.95,34.75 131.60,37.20"/>
    </edge>
    <edge id=":B0_4" function="internal">
        <lane id=":B0_4_0" index="0" speed="13.89" length="14.40" shape="137.20,31.60 122.80,31.60"/>
    </edge>
    <edge id=":B0_5" function="internal">
        <lane id=":B0_5_0" index="0" speed="8.00" length="14.19" shape="137.20,31.60 133.35,31.05 130.60,29.40 128.95,26.65 128.40,22.80"/>
    </edge>
    <edge id=":B0_6" function="internal">
        <lane id=":B0_6_0" index="0" speed="6.51" length="9.03" shape="131.60,22.80 131.95,25.25 133.00,27.00 134.75,28.05 137.20,28.40"/>
    </edge>
    <edge id=":B0_7" function="internal">
        <lane id=":B0_7_0" index="0" speed="13.89" length="14.40" shape="131.60,22.80 131.60,37.20"/>
    </edge>
    <edge id=":B0_8" function="internal">
        <lane id=":B0_8_0" index="0" speed="8.00" length="5.93" shape="131.60,22.80 131.05,26.65 130.00,28.40"/>
    </edge>
    <edge id=":B0_13" function="internal">
        <lane id=":B0_13_0" index="0" speed="8.00" length="8.26" shape="130.00,28.40 129.40,29.40 126.65,31.05 122.80,31.60"/>
    </edge>
    <edge id=":B0_9" function="internal">
        <lane id=":B0_9_0" index="0" speed="6.51" length="9.03" shape="122.80,28.40 125.25,28.05 127.00,27.00 128.05,25.25 128.40,22.80"/>
    </edge>
    <edge id=":B0_10" function="internal">
        <lane id=":B0_10_0" index="0" speed="13.89" length="14.40" shape="122.80,28.40 137.20,28.40"/>
    </edge>
    <edge id=":B0_11" function="internal">
        <lane id=":B0_11_0" index="0" speed="8.00" length="14.19" shape="122.80,28.40 126.65,28.95 129.40,30.60 131.05,33.35 131.60,37.20"/>
    </edge>
    <edge id=":B1_0" function="internal">
        <lane id=":B1_0_0" index="0" speed="6.51" length="9.03" shape="128.40,137.20 128.05,134.75 127.00,133.00 125.25,131.95 122.80,131.60"/>
    </edge>
    <edge id=":B1_1" function="internal">
        <lane id=":B1_1_0" index="0" speed="13.89" length="14.40" shape="128.40,137.20 128.40,122.80"/>
    </edge>
    <edge id=":B1_2" function="internal">
        <lane id=":B1_2_0" index="0" speed="8.00" length="5.93" shape="128.40,137.20 128.95,133.35 130.00,131.60"/>
    </edge>
    <edge id=":B1_12" function="internal">
        <lane id=":B1_12_0" index="0" speed="8.00" length="8.26" shape="130.00,131.60 130.60,130.60 133.35,128.95 137.20,128.40"/>
    </edge>
    <edge id=":B1_3" function="internal">
        <lane id=":B1_3_0" index="0" speed="6.51" length="9.03" shape="137.20,131.60 134.75,131.95 133.00,133.00 131.95,134.75 131.60,137.20"/>
    </edge>
    <edge id=":B1_4" function="internal">
        <lane id=":B1_4_0" index="0" speed="13.89" length="14.40" shape="137.20,131.60 122.80,131.60"/>
    </edge>
    <edge id=":B1_5" function="internal">
        <lane id=":B1_5_0" index="0" speed="8.00" length="14.19" shape="137.20,131.60 133.35,131.05 130.60,129.40 128.95,126.65 128.40,122.80"/>
    </edge>
    <edge id=":B1_6" function="internal">
        <lane id=":B1_6_0" index="0" speed="6.51" length="9.03" shape="131.60,122.80 131.95,125.25 133.00,127.00 134.75,128.05 137.20,128.40"/>
    </edge>
    <edge id=":B1_7" function="internal">
        <lane id=":B1_7_0" index="0" speed="13.89" length="14.40" shape="131.60,122.80 131.60,137.20"/>
    </edge>
    <edge id=":B1_8" function="internal">
        <lane id=":B1_8_0" index="0" speed="8.00" length="5.93" shape="131.60,122.80 131.05,126.65 130.00,128.40"/>
    </edge>
    <edge id=":B1_13" function="internal">
        <lane id=":B1_13_0" index="0" speed="8.00" length="8.26" shape="130.00,128.40 129.40,129.40 126.65,131.05 122.80,131.60"/>
    </edge>
    <edge id=":B1_9" function="internal">
        <lane id=":B1_9_0" index="0" speed="6.51" length="9.03" shape="122.80,128.40 125.25,128.05 127.00,127.00 128.05,125.25 128.40,122.80"/>
    </edge>
    <edge id=":B1_10" function="internal">
        <lane id=":B1_10_0" index="0" speed="13.89" length="14.40" shape="122.80,128.40 137.20,128.40"/>
    </edge>
    <edge id=":B1_11" function="internal">
        <lane id=":B1_11_0" index="0" speed="8.00" length="14.19" shape="122.80,128.40 126.65,128.95 129.40,130.60 131.05,133.35 131.60,137.20"/>
    </edge>
    <edge id=":B2_0" function="internal">
        <lane id=":B2_0_0" index="0" speed="6.51" length="9.03" shape="128.40,237.20 128.05,234.75 127.00,233.00 125.25,231.95 122.80,231.60"/>
    </edge>
    <edge id=":B2_1" function="internal">
        <lane id=":B2_1_0" index="0" speed="13.89" length="14.40" shape="128.40,237.20 128.40,222.80"/>
    </edge>
    <edge id=":B2_2" function="internal">
        <lane id=":B2_2_0" index="0" speed="8.00" length="5.93" shape="128.40,237.20 128.95,233.35 130.00,231.60"/>
    </edge>
    <edge id=":B2_12" function="internal">
        <lane id=":B2_12_0" index="0" speed="8.00" length="8.26" shape="130.00,231.60 130.60,230.60 133.35,228.95 137.20,228.40"/>
    </edge>
    <edge id=":B2_3" function="internal">
        <lane id=":B2_3_0" index="0" speed="6.51" length="9.03" shape="137.20,231.60 134.75,231.95 133.00,233.00 131.95,234.75 131.60,237.20"/>
    </edge>
    <edge id=":B2_4" function="internal">
        <lane id=":B2_4_0" index="0" speed="13.89" length="14.40" shape="137.20,231.60 122.80,231.60"/>
    </edge>
    <edge id=":B2_5" function="internal">
        <lane id=":B2_5_0" index="0" speed="8.00" length="14.19" shape="137.20,231.60 133.35,231.05 130.60,229.40 128.95,226.65 128.40,222.80"/>
    </edge>
    <edge id=":B2_6" function="internal">
        <lane id=":B2_6_0" index="0" speed="6.51" length="9.03" shape="131.60,222.80 131.95,225.25 133.00,227.00 134.75,228.05 137.20,228.40"/>
    </edge>
    <edge id=":B2_7" function="internal">
        <lane id=":B2_7_0" index="0" speed="13.89" length="14.40" shape="131.60,222.80 131.60,237.20"/>
    </edge>
    <edge id=":B2_8" function="internal">
        <lane id=":B2_8_0" index="0" speed="8.00" length="5.93" shape="131.60,222.80 131.05,226.65 130.00,228.40"/>
    </edge>
    <edge id=":B2_13" function="internal">
        <lane id=":B2_13_0" index="0" speed="8.00" length="8.26" shape="130.00,228.40 129.40,229.40 126.65,231.05 122.80,231.60"/>
    </edge>
    <edge id=":B2_9" function="internal">
        <lane id=":B2_9_0" index="0" speed="6.51" length="9.03" shape="122.80,228.40 125.25,228.05 127.00,227.00 128.05,225.25 128.40,222.80"/>
    </edge>
    <edge id=":B2_10" function="internal">
        <lane id=":B2_10_0" index="0" speed="13.89" length="14.40" shape="122.80,228.40 137.20,228.40"/>
    </edge>
    <edge id=":B2_11" function="internal">
        <lane id=":B2_11_0" index="0" speed="8.00" length="14.19" shape="122.80,228.40 126.65,228.95 129.40,230.60 131.05,233.35 131.60,237.20"/>
    </edge>
    <edge id=":B3_0" function="internal">
        <lane id=":B3_0_0" index="0" speed="6.51" length="9.03" shape="128.40,337.20 128.05,334.75 127.00,333.00 125.25,331.95 122.80,331.60"/>
    </edge>
    <edge id=":B3_1" function="internal">
        <lane id=":B3_1_0" index="0" speed="13.89" length="14.40" shape="128.40,337.20 128.40,322.80"/>
    </edge>
    <edge id=":B3_2" function="internal">
        <lane id=":B3_2_0" index="0" speed="8.00" length="5.93" shape="128.40,337.20 128.95,333.35 130.00,331.60"/>
    </edge>
    <edge id=":B3_12" function="internal">
        <lane id=":B3_12_0" index="0" speed="8.00" length="8.26" shape="130.00,331.60 130.60,330.60 133.35,328.95 137.20,328.40"/>
    </edge>
    <edge id=":B3_3" function="internal">
        <lane id=":B3_3_0" index="0" speed="6.51" length="9.03" shape="137.20,331.60 134.75,331.95 133.00,333.00 131.95,334.75 131.60,337.20"/>
    </edge>
    <edge id=":B3_4" function="internal">
        <lane id=":B3_4_0" index="0" speed="13.89" length="14.40" shape="137.20,331.60 122.80,331.60"/>
    </edge>
    <edge id=":B3_5" function="internal">
        <lane id=":B3_5_0" index="0" speed="8.00" length="14.19" shape="137.20,331.60 133.35,331.05 130.60,329.40 128.95,326.65 128.40,322.80"/>
    </edge>
    <edge id=":B3_6" function="internal">
        <lane id=":B3_6_0" index="0" speed="6.51" length="9.03" shape="131.60,322.80 131.95,325.25 133.00,327.00 134.75,328.05 137.20,328.40"/>
    </edge>
    <edge id=":B3_7" function="internal">
        <lane id=":B3_7_0" index="0" speed="13.89" length="14.40" shape="131.60,322.80 131.60,337.20"/>
    </edge>
    <edge id=":B3_8" function="internal">
        <lane id=":B3_8_0" index="0" speed="8.00" length="5.93" shape="131.60,322.80 131.05,326.65 130.00,328.40"/>
    </edge>
    <edge id=":B3_13" function="internal">
        <lane id=":B3_13_0" index="0" speed="8.00" length="8.26" shape="130.00,328.40 129.40,329.40 126.65,331.05 122.80,331.60"/>
    </edge>
    <edge id=":B3_9" function="internal">
        <lane id=":B3_9_0" index="0" speed="6.51" length="9.03" shape="122.80,328.40 125.25,328.05 127.00,327.00 128.05,325.25 128.40,322.80"/>
    </edge>
    <edge id=":B3_10" function="internal">
        <lane id=":B3_10_0" index="0" speed="13.89" length="14.40" shape="122.80,328.40 137.20,328.40"/>
    </edge>
    <edge id=":B3_11" function="internal">
        <lane id=":B3_11_0" index="0" speed="8.00" length="14.19" shape="122.80,328.40 126.65,328.95 129.40,330.60 131.05,333.35 131.60,337.20"/>
    </edge>
    <edge id=":B4_0" function="internal">
        <lane id=":B4_0_0" index="0" speed="6.51" length="9.03" shape="128.40,437.20 128.05,434.75 127.00,433.00 125.25,431.95 122.80,431.60"/>
    </edge>
    <edge id=":B4_1" function="internal">
        <lane id=":B4_1_0" index="0" speed="13.89" length="14.40" shape="128.40,437.20 128.40,422.80"/>
    </edge>
    <edge id=":B4_2" function="internal">
        <lane id=":B4_2_0" index="0" speed="8.00" length="5.93" shape="128.40,437.20 128.95,433.35 130.00,431.60"/>
    </edge>
    <edge id=":B4_12" function="internal">
        <lane id=":B4_12_0" index="0" speed="8.00" length="8.26" shape="130.00,431.60 130.60,430.60 133.35,428.95 137.20,428.40"/>
    </edge>
    <edge id=":B4_3" function="internal">
        <lane id=":B4_3_0" index="0" speed="6.51" length="9.03" shape="137.20,431.60 134.75,431.95 133.00,433.00 131.95,434.75 131.60,437.20"/>
    </edge>
    <edge id=":B4_4" function="internal">
        <lane id=":B4_4_0" index="0" speed="13.89" length="14.40" shape="137.20,431.60 122.80,431.60"/>
    </edge>
    <edge id=":B4_5" function="internal">
        <lane id=":B4_5_0" index="0" speed="8.00" length="14.19" shape="137.20,431.60 133.35,431.05 130.60,429.40 128.95,426.65 128.40,422.80"/>
    </edge>
    <edge id=":B4_6" function="internal">
        <lane id=":B4_6_0" index="0" speed="6.51" length="9.03" shape="131.60,422.80 131.95,425.25 133.00,427.00 134.75,428.05 137.20,428.40"/>
    </edge>
    <edge id=":B4_7" function="internal">
        <lane id=":B4_7_0" index="0" speed="13.89" length="14.40" shape="131.60,422.80 131.60,437.20"/>
    </edge>
    <edge id=":B4_8" function="internal">
        <lane id=":B4_8_0" index="0" speed="8.00" length="5.93" shape="131.60,422.80 131.05,426.65 130.00,428.40"/>
    </edge>
    <edge id=":B4_13" function="internal">
        <lane id=":B4_13_0" index="0" speed="8.00" length="8.26" shape="130.00,428.40 129.40,429.40 126.65,431.05 122.80,431.60"/>
    </edge>
    <edge id=":B4_9" function="internal">
        <lane id=":B4_9_0" index="0" speed="6.51" length="9.03" shape="122.80,428.40 125.25,428.05 127.00,427.00 128.05,425.25 128.40,422.80"/>
    </edge>
    <edge id=":B4_10" function="internal">
        <lane id=":B4_10_0" index="0" speed="13.89" length="14.40" shape="122.80,428.40 137.20,428.40"/>
    </edge>
    <edge id=":B4_11" function="internal">
        <lane id=":B4_11_0" index="0" speed="8.00" length="14.19" shape="122.80,428.40 126.65,428.95 129.40,430.60 131.05,433.35 131.60,437.20"/>
    </edge>
    <edge id=":C0_0" function="internal">
        <lane id=":C0_0_0" index="0" speed="6.51" length="9.03" shape="228.40,37.20 228.05,34.75 227.00,33.00 225.25,31.95 222.80,31.60"/>
    </edge>
    <edge id=":C0_1" function="internal">
        <lane id=":C0_1_0" index="0" speed="13.89" length="14.40" shape="228.40,37.20 228.40,22.80"/>
    </edge>
    <edge id=":C0_2" function="internal">
        <lane id=":C0_2_0" index="0" speed="8.00" length="5.93" shape="228.40,37.20 228.95,33.35 230.00,31.60"/>
    </edge>
    <edge id=":C0_12" function="internal">
        <lane id=":C0_12_0" index="0" speed="8.00" length="8.26" shape="230.00,31.60 230.60,30.60 233.35,28.95 237.20,28.40"/>
    </edge>
    <edge id=":C0_3" function="internal">
        <lane id=":C0_3_0" index="0" speed="6.51" length="9.03" shape="237.20,31.60 234.75,31.95 233.00,33.00 231.95,34.75 231.60,37.20"/>
    </edge>
    <edge id=":C0_4" function="internal">
        <lane id=":C0_4_0" index="0" speed="13.89" length="14.40" shape="237.20,31.60 222.80,31.60"/>
    </edge>
    <edge id=":C0_5" function="internal">
        <lane id=":C0_5_0" index="0" speed="8.00" length="14.19" shape="237.20,31.60 233.35,31.05 230.60,29.40 228.95,26.65 228.40,22.80"/>
    </edge>
    <edge id=":C0_6" function="internal">
        <lane id=":C0_6_0" index="0" speed="6.51" length="9.03" shape="231.60,22.80 231.95,25.25 233.00,27.00 234.75,28.05 237.20,28.40"/>
    </edge>
    <edge id=":C0_7" function="internal">
        <lane id=":C0_7_0" index="0" speed="13.89" length="14.40" shape="231.60,22.80 231.60,37.20"/>
    </edge>
    <edge id=":C0_8" function="internal">
        <lane id=":C0_8_0" index="0" speed="8.00" length="5.93" shape="231.60,22.80 231.05,26.65 230.00,28.40"/>
    </edge>
    <edge id=":C0_13" function="internal">
        <lane id=":C0_13_0" index="0" speed="8.00" length="8.26" shape="230.00,28.40 229.40,29.40 226.65,31.05 222.80,31.60"/>
    </edge>
    <edge id=":C0_9" function="internal">
        <lane id=":C0_9_0" index="0" speed="6.51" length="9.03" shape="222.80,28.40 225.25,28.05 227.00,27.00 228.05,25.25 228.40,22.80"/>
    </edge>
    <edge id=":C0_10" function="internal">
        <lane id=":C0_10_0" index="0" speed="13.89" length="14.40" shape="222.80,28.40 237.20,28.40"/>
    </edge>
    <edge id=":C0_11" function="internal">
        <lane id=":C0_11_0" index="0" speed="8.00" length="14.19" shape="222.80,28.40 226.65,28.95 229.40,30.60 231.05,33.35 231.60,37.20"/>
    </edge>
    <edge id=":C1_0" function="internal">
        <lane id=":C1_0_0" index="0" speed="6.51" length="9.03" shape="228.40,137.20 228.05,134.75 227.00,133.00 225.25,131.95 222.80,131.60"/>
    </edge>
    <edge id=":C1_1" function="internal">
        <lane id=":C1_1_0" index="0" speed="13.89" length="14.40" shape="228.40,137.20 228.40,122.80"/>
    </edge>
    <edge id=":C1_2" function="internal">
        <lane id=":C1_2_0" index="0" speed="8.00" length="5.93" shape="228.40,137.20 228.95,133.35 230.00,131.60"/>
    </edge>
    <edge id=":C1_12" function="internal">
        <lane id=":C1_12_0" index="0" speed="8.00" length="8.26" shape="230.00,131.60 230.60,130.60 233.35,128.95 237.20,128.40"/>
    </edge>
    <edge id=":C1_3" function="internal">
        <lane id=":C1_3_0" index="0" speed="6.51" length="9.03" shape="237.20,131.60 234.75,131.95 233.00,133.00 231.95,134.75 231.60,137.20"/>
    </edge>
    <edge id=":C1_4" function="internal">
        <lane id=":C1_4_0" index="0" speed="13.89" length="14.40" shape="237.20,131.60 222.80,131.60"/>
    </edge>
    <edge id=":C1_5" function="internal">
        <lane id=":C1_5_0" index="0" speed="8.00" length="14.19" shape="237.20,131.60 233.35,131.05 230.60,129.40 228.95,126.65 228.40,122.80"/>
    </edge>
    <edge id=":C1_6" function="internal">
        <lane id=":C1_6_0" index="0" speed="6.51" length="9.03" shape="231.60,122.80 231.95,125.25 233.00,127.00 234.75,128.05 237.20,128.40"/>
    </edge>
    <edge id=":C1_7" function="internal">
        <lane id=":C1_7_0" index="0" speed="13.89" length="14.40" shape="231.60,122.80 231.60,137.20"/>