<flows>
    <flow id="0.1" from="bottom0A0" to="E4top4" begin="0" end="100" number="200"/>
    <flow id="0.2" from="bottom0A0" to="A4top0" begin="0" end="100" number="200"/>
    <flow id="0.3" from="bottom1B0" to="B4top1" begin="0" end="100" number="200"/>
    <flow id="0.4" from="bottom2C0" to="C4top2" begin="0" end="100" number="200"/>
    <flow id="0.5" from="bottom3D0" to="D4top3" begin="0" end="100" number="200"/>
    <flow id="0.6" from="bottom4E0" to="A4top0" begin="0" end="100" number="200"/>
    <flow id="0.7" from="bottom4E0" to="E4top4" begin="0" end="100" number="200"/>
    <flow id="0.8" from="left0A0" to="E4right4" begin="0" end="100" number="200"/>
    <flow id="0.9" from="left0A0" to="E0right0" begin="0" end="100" number="200"/>
    <flow id="1.0" from="left1A1" to="E1right1" begin="0" end="100" number="200"/>
    <flow id="1.1" from="left2A2" to="E2right2" begin="0" end="100" number="200"/>
    <flow id="1.2" from="left3A3" to="E3right3" begin="0" end="100" number="200"/>
    <flow id="1.3" from="left4A4" to="E0right0" begin="0" end="100" number="200"/>
    <flow id="1.4" from="left4A4" to="E4right4" begin="0" end="100" number="200"/>
    <flow id="1.5" from="top0A4" to="E0bottom4" begin="0" end="100" number="200"/>
    <flow id="1.6" from="top0A4" to="A0bottom0" begin="0" end="100" number="200"/>
    <flow id="1.7" from="top1B4" to="B0bottom1" begin="0" end="100" number="200"/>
    <flow id="1.8" from="top2C4" to="C0bottom2" begin="0" end="100" number="200"/>
    <flow id="1.9" from="top3D4" to="D0bottom3" begin="0" end="100" number="200"/>
    <flow id="2.0" from="top4E4" to="A0bottom0" begin="0" end="100" number="200"/>
    <flow id="2.1" from="top4E4" to="E0bottom4" begin="0" end="100" number="200"/>
    <flow id="2.2" from="right0E0" to="A4left4" begin="0" end="100" number="200"/>
    <flow id="2.3" from="right0E0" to="A0left0" begin="0" end="100" number="200"/>
    <flow id="2.4" from="right1E1" to="A1left1" begin="0" end="100" number="200"/>
    <flow id="2.5" from="right2E2" to="A2left2" begin="0" end="100" number="200"/>
    <flow id="2.6" from="right3E3" to="A3left3" begin="0" end="100" number="200"/>
    <flow id="2.7" from="right4E4" to="A0left0" begin="0" end="100" number="200"/>
    <flow id="2.8" from="right4E4" to="A4left4" begin="0" end="100" number="200"/>
</flows>