<routes>
    <flow id="bottom0_right4"   color="255,0,0"         from="bottom0A0" to="E4right4"     begin="0"    end="300" number="10"/>
    <flow id="left4_bottom4"    color="0,255,0"         from="left4A4"   to="E0bottom4"    begin="0"    end="300" number="10"/>
    <flow id="top4_left0"       color="0,0,255"         from="top4E4"    to="A0left0"      begin="0"    end="300" number="10"/>
    <flow id="right0_top0"      color="255,255,0"       from="right0E0"  to="A4top0"       begin="0"    end="300" number="10"/>

    <flow id="bottom1_right3"   color="150,0,0"         from="bottom1B0" to="E3right3"     begin="0"    end="300" number="10"/>
    <flow id="left3_bottom3"    color="0,0,150"         from="left3A3"   to="D0bottom3"    begin="0"    end="300" number="10"/>
    <flow id="top3_left1"       color="0,150,0"         from="top3D4"    to="A1left1"      begin="0"    end="300" number="10"/>
    <flow id="right1_top1"      color="150,150,0"       from="right1E1"  to="B4top1"       begin="0"    end="300" number="10"/>

    <flow id="left1_right1"      color="150,150,150"    from="left1A1"   to="E1right1"     begin="0"    end="300" number="10"/>
    <flow id="right3_left3"      color="150,150,150"    from="right3E3"  to="A3left3"      begin="0"    end="300" number="10"/>


    <flow id="nl_top0_bottom0"      color="0,150,150"      from="top0A4"    to="A0bottom0"    begin="0"    end="300" number="90"/>
    <flow id="nl_left0_right0"      color="0,150,150"      from="left0A0"   to="E0right0"     begin="0"    end="300" number="90"/>
    <flow id="nl_bottom4_top4"      color="0,150,150"      from="bottom4E0" to="E4top4"       begin="0"    end="300" number="90"/>
    <flow id="nl_right4_left4"      color="0,150,150"      from="right4E4"  to="A4left4"      begin="0"    end="300" number="90"/>

    <flow id="nl_left2_right2"      color="255,255,255"    from="left2A2"   to="E2right2"     begin="0"    end="300" number="90"/>
    <flow id="nl_right2_left2"      color="255,255,255"    from="right2E2"  to="A2left2"      begin="0"    end="300" number="90"/>
    <flow id="nl_top2_bottom2"      color="255,255,255"    from="top2C4"    to="C0bottom2"    begin="0"    end="300" number="90"/>
    <flow id="nl_bottom2_top2"      color="255,255,255"    from="bottom2C0" to="C4top2"       begin="0"    end="300" number="90"/>

    <flow id="nl_top1_bottom1"      color="150,150,150"    from="top1B4"    to="B0bottom1"    begin="0"    end="300" number="90"/>
    <flow id="nl_bottom3_top3"      color="150,150,150"    from="bottom3D0" to="D4top3"       begin="0"    end="300" number="90"/>
</routes>
