<?xml version="1.0" encoding="UTF-8"?>

<!-- generated on 2022-08-05 11:08:09 by Eclipse SUMO netedit Version 1.14.1
-->

<routes>
    <!-- Vehicles, persons and containers (sorted by depart) -->
    <flow id="f_0" begin="0.00" from="B3C3" to="A1A2" end="0.00" number="200"/>
</routes>
