<configuration>
    <input>
        <net-file value="arterialGrid.net.xml"/>
        <route-files value="arterialGrid.rou.xml"/>
		<additional-files value="arterialGrid2Contexts.add.xml" />
    </input>
    <time>
        <begin value="0"/>
        <end value="100000"/>
    </time>
 <output>
        <summary-output value="output_sumo.xml"/>
 </output>

</configuration>

