<?xml version="1.0" encoding="UTF-8"?>

<!-- generated on sex 02 abr 2021 14:24:00 by Eclipse SUMO netedit Version 1.8.0
<configuration xmlns:xsi="http://www.w3.org/2001/XMLSchema-instance" xsi:noNamespaceSchemaLocation="http://sumo.dlr.de/xsd/netconvertConfiguration.xsd">

    <input>
        <sumo-net-file value="/home/arthur/Área%20de%20Trabalho/SUMO/cot/Cottbus.net.xml"/>
    </input>

    <output>
        <output-file value="/home/arthur/Área%20de%20Trabalho/SUMO/cot/Cottbus.net.xml"/>
    </output>

    <processing>
        <geometry.min-radius.fix.railways value="false"/>
        <geometry.max-grade.fix value="false"/>
        <offset.disable-normalization value="true"/>
        <lefthand value="false"/>
    </processing>

    <junctions>
        <no-turnarounds value="true"/>
        <junctions.corner-detail value="5"/>
        <junctions.limit-turn-speed value="5.5"/>
        <rectangular-lane-cut value="false"/>
    </junctions>

    <pedestrian>
        <walkingareas value="false"/>
    </pedestrian>

    <report>
        <aggregate-warnings value="5"/>
    </report>

</configuration>
-->

<net version="1.6" junctionCornerDetail="5" limitTurnSpeed="5.50" xmlns:xsi="http://www.w3.org/2001/XMLSchema-instance" xsi:noNamespaceSchemaLocation="http://sumo.dlr.de/xsd/net_file.xsd">

    <location netOffset="0.00,0.00" convBoundary="-132.80,-1622.31,3101.10,802.85" origBoundary="-10000000000.00,-10000000000.00,10000000000.00,10000000000.00" projParameter="!"/>

    <edge id=":gneJ10_0" function="internal">
        <lane id=":gneJ10_0_0" index="0" speed="7.30" length="11.29" shape="2540.56,-1277.72 2538.42,-1279.00 2536.06,-1279.08 2533.48,-1277.97 2530.69,-1275.65"/>
    </edge>
    <edge id=":gneJ10_1" function="internal">
        <lane id=":gneJ10_1_0" index="0" speed="13.89" length="16.39" shape="2540.56,-1277.72 2537.05,-1280.68 2534.29,-1282.27 2531.22,-1283.29 2526.74,-1284.56"/>
        <lane id=":gneJ10_1_1" index="1" speed="13.89" length="16.39" shape="2542.73,-1280.08 2538.90,-1283.32 2535.90,-1285.08 2532.55,-1286.22 2527.66,-1287.62"/>
    </edge>
    <edge id=":gneJ10_3" function="internal">
        <lane id=":gneJ10_3_0" index="0" speed="13.89" length="19.30" shape="2529.51,-1293.75 2535.21,-1292.09 2539.11,-1290.71 2542.59,-1288.60 2547.07,-1284.78"/>
        <lane id=":gneJ10_3_1" index="1" speed="13.89" length="19.30" shape="2528.59,-1290.69 2533.88,-1289.16 2537.50,-1287.89 2540.75,-1285.96 2544.90,-1282.43"/>
    </edge>
    <edge id=":gneJ10_5" function="internal">
        <lane id=":gneJ10_5_0" index="0" speed="5.70" length="9.21" shape="2528.42,-1277.91 2530.08,-1280.10 2530.35,-1281.93 2529.24,-1283.42 2526.74,-1284.56"/>
    </edge>
    <edge id=":gneJ10_6" function="internal">
        <lane id=":gneJ10_6_0" index="0" speed="9.30" length="18.98" shape="2528.42,-1277.91 2533.29,-1282.05 2537.66,-1284.18 2541.53,-1284.31 2544.90,-1282.43"/>
    </edge>
    <edge id=":gneJ11_0" function="internal">
        <lane id=":gneJ11_0_0" index="0" speed="4.18" length="1.28" shape="3059.91,-798.40 3059.87,-798.72 3059.77,-799.02 3059.61,-799.29 3059.39,-799.53"/>
    </edge>
    <edge id=":gneJ11_1" function="internal">
        <lane id=":gneJ11_1_0" index="0" speed="6.61" length="3.83" shape="3063.11,-798.49 3062.99,-799.46 3062.69,-800.35 3062.22,-801.16 3061.56,-801.88"/>
    </edge>
    <edge id=":gneJ11_2" function="internal">
        <lane id=":gneJ11_2_0" index="0" speed="9.80" length="8.94" shape="3065.90,-806.59 3067.43,-804.89 3068.54,-803.01 3069.23,-800.93 3069.50,-798.67"/>
    </edge>
    <edge id=":gneJ11_3" function="internal">
        <lane id=":gneJ11_3_0" index="0" speed="8.36" length="6.38" shape="3063.73,-804.23 3064.82,-803.02 3065.61,-801.68 3066.11,-800.20 3066.31,-798.58"/>
    </edge>
    <edge id=":gneJ12_0" function="internal">
        <lane id=":gneJ12_0_0" index="0" speed="13.89" length="3.16" shape="3105.86,305.31 3105.89,306.40 3105.85,307.15 3105.70,307.89 3105.39,308.94"/>
        <lane id=":gneJ12_0_1" index="1" speed="13.89" length="3.16" shape="3102.66,305.43 3102.68,306.21 3102.65,306.75 3102.55,307.27 3102.33,308.02"/>
    </edge>
    <edge id=":gneJ12_2" function="internal">
        <lane id=":gneJ12_2_0" index="0" speed="13.89" length="1.05" shape="3096.20,306.19 3096.24,306.04 3096.26,305.93 3096.27,305.83 3096.26,305.67"/>
        <lane id=":gneJ12_2_1" index="1" speed="11.62" length="1.05" shape="3099.26,307.11 3099.39,306.66 3099.46,306.34 3099.47,306.02 3099.46,305.55"/>
    </edge>
    <edge id=":gneJ13_0" function="internal">
        <lane id=":gneJ13_0_0" index="0" speed="10.20" length="12.34" shape="3048.82,498.05 3047.01,499.03 3043.24,500.26 3039.34,501.38 3037.16,502.00"/>
    </edge>
    <edge id=":gneJ13_1" function="internal">
        <lane id=":gneJ13_1_0" index="0" speed="9.25" length="10.05" shape="3045.75,497.13 3044.98,498.22 3043.29,499.39 3040.69,500.65 3037.16,502.00"/>
    </edge>
    <edge id=":gneJ13_2" function="internal">
        <lane id=":gneJ13_2_0" index="0" speed="6.86" length="5.29" shape="3036.10,498.98 3037.33,498.40 3038.33,497.59 3039.09,496.56 3039.62,495.30"/>
    </edge>
    <edge id=":gneJ13_3" function="internal">
        <lane id=":gneJ13_3_0" index="0" speed="7.90" length="7.19" shape="3036.10,498.98 3037.49,498.54 3039.64,497.83 3041.67,497.01 3042.68,496.22"/>
    </edge>
    <edge id=":gneJ14_0" function="internal">
        <lane id=":gneJ14_0_0" index="0" speed="13.89" length="0.96" shape="2591.03,658.20 2590.76,658.30 2590.57,658.35 2590.38,658.39 2590.10,658.43"/>
    </edge>
    <edge id=":gneJ14_1" function="internal">
        <lane id=":gneJ14_1_0" index="0" speed="13.89" length="0.32" shape="2589.66,655.26 2589.76,655.25 2589.82,655.23 2589.88,655.21 2589.97,655.18"/>
    </edge>
    <edge id=":gneJ15_0" function="internal">
        <lane id=":gneJ15_0_0" index="0" speed="13.89" length="14.98" shape="2078.46,729.08 2063.58,730.77"/>
    </edge>
    <edge id=":gneJ15_1" function="internal">
        <lane id=":gneJ15_1_0" index="0" speed="8.06" length="11.01" shape="2069.69,719.93 2071.42,722.81 2073.38,724.77 2075.59,725.80 2078.03,725.91"/>
    </edge>
    <edge id=":gneJ15_2" function="internal">
        <lane id=":gneJ15_2_0" index="0" speed="7.52" length="15.75" shape="2069.69,719.93 2071.08,724.28 2070.52,727.54 2068.02,729.71 2063.58,730.77"/>
    </edge>
    <edge id=":gneJ15_3" function="internal">
        <lane id=":gneJ15_3_0" index="0" speed="5.88" length="9.11" shape="2063.27,727.59 2065.84,726.97 2067.29,725.72 2067.61,723.83 2066.81,721.31"/>
    </edge>
    <edge id=":gneJ15_4" function="internal">
        <lane id=":gneJ15_4_0" index="0" speed="13.89" length="14.85" shape="2063.27,727.59 2078.03,725.91"/>
    </edge>
    <edge id=":gneJ17_0" function="internal">
        <lane id=":gneJ17_0_0" index="0" speed="13.89" length="15.15" shape="1006.48,804.10 1002.71,804.22 998.91,804.27 995.11,804.23 991.34,804.08"/>
    </edge>
    <edge id=":gneJ17_1" function="internal">
        <lane id=":gneJ17_1_0" index="0" speed="5.92" length="9.10" shape="1001.88,795.18 1001.50,797.78 1002.12,799.60 1003.74,800.64 1006.35,800.91"/>
    </edge>
    <edge id=":gneJ17_2" function="internal">
        <lane id=":gneJ17_2_0" index="0" speed="9.00" length="15.02" shape="1001.88,795.18 1000.19,799.24 997.87,802.07 994.92,803.69 991.34,804.08"/>
    </edge>
    <edge id=":gneJ17_3" function="internal">
        <lane id=":gneJ17_3_0" index="0" speed="7.67" length="10.69" shape="991.52,800.88 993.95,800.58 995.97,799.38 997.59,797.28 998.81,794.28"/>
    </edge>
    <edge id=":gneJ17_4" function="internal">
        <lane id=":gneJ17_4_0" index="0" speed="13.89" length="14.83" shape="991.52,800.88 995.24,801.03 998.93,801.08 1002.63,801.03 1006.35,800.91"/>
    </edge>
    <edge id=":gneJ20_0" function="internal">
        <lane id=":gneJ20_0_0" index="0" speed="13.89" length="15.06" shape="-134.11,167.59 -134.19,163.83 -134.14,160.06 -133.95,156.29 -133.64,152.54"/>
    </edge>
    <edge id=":gneJ20_1" function="internal">
        <lane id=":gneJ20_1_0" index="0" speed="6.57" length="9.33" shape="-125.15,161.70 -127.75,162.11 -129.58,163.21 -130.64,164.99 -130.92,167.46"/>
    </edge>
    <edge id=":gneJ20_2" function="internal">
        <lane id=":gneJ20_2_0" index="0" speed="7.80" length="14.68" shape="-125.15,161.70 -129.21,161.21 -131.98,159.52 -133.46,156.63 -133.64,152.54"/>
    </edge>
    <edge id=":gneJ20_3" function="internal">
        <lane id=":gneJ20_3_0" index="0" speed="6.26" length="9.05" shape="-130.46,152.86 -130.35,155.38 -129.43,157.16 -127.73,158.20 -125.22,158.50"/>
    </edge>
    <edge id=":gneJ20_4" function="internal">
        <lane id=":gneJ20_4_0" index="0" speed="13.89" length="14.62" shape="-130.46,152.86 -130.76,156.53 -130.95,160.15 -131.00,163.77 -130.92,167.46"/>
    </edge>
    <edge id=":gneJ21_0" function="internal">
        <lane id=":gneJ21_0_0" index="0" speed="7.23" length="2.87" shape="453.62,269.57 452.80,269.79 452.21,269.85 451.63,269.76 450.82,269.52"/>
    </edge>
    <edge id=":gneJ21_1" function="internal">
        <lane id=":gneJ21_1_0" index="0" speed="13.89" length="0.96" shape="451.81,266.48 452.08,266.56 452.27,266.59 452.47,266.57 452.74,266.49"/>
    </edge>
    <edge id=":gneJ22_0" function="internal">
        <lane id=":gneJ22_0_0" index="0" speed="6.71" length="9.63" shape="920.02,143.10 918.91,140.55 917.35,138.94 915.34,138.28 912.87,138.57"/>
    </edge>
    <edge id=":gneJ22_1" function="internal">
        <lane id=":gneJ22_1_0" index="0" speed="13.89" length="15.04" shape="920.02,143.10 916.20,128.56"/>
    </edge>
    <edge id=":gneJ22_2" function="internal">
        <lane id=":gneJ22_2_0" index="0" speed="6.12" length="9.06" shape="927.36,135.99 924.87,136.57 923.32,137.80 922.73,139.68 923.09,142.21"/>
    </edge>
    <edge id=":gneJ22_3" function="internal">
        <lane id=":gneJ22_3_0" index="0" speed="13.89" length="14.74" shape="927.36,135.99 923.67,136.38 920.05,136.92 916.46,137.65 912.87,138.57"/>
    </edge>
    <edge id=":gneJ22_4" function="internal">
        <lane id=":gneJ22_4_0" index="0" speed="7.24" length="10.20" shape="919.32,127.84 920.28,130.22 921.90,131.84 924.17,132.70 927.09,132.80"/>
    </edge>
    <edge id=":gneJ22_5" function="internal">
        <lane id=":gneJ22_5_0" index="0" speed="13.89" length="14.85" shape="919.32,127.84 923.09,142.21"/>
    </edge>
    <edge id=":gneJ22_6" function="internal">
        <lane id=":gneJ22_6_0" index="0" speed="6.66" length="9.14" shape="912.00,135.49 914.30,134.48 915.77,132.98 916.40,131.01 916.20,128.56"/>
    </edge>
    <edge id=":gneJ22_7" function="internal">
        <lane id=":gneJ22_7_0" index="0" speed="13.89" length="15.36" shape="912.00,135.49 915.68,134.55 919.48,133.79 923.31,133.21 927.09,132.80"/>
    </edge>
    <edge id=":gneJ23_0" function="internal">
        <lane id=":gneJ23_0_0" index="0" speed="7.33" length="2.76" shape="1057.54,603.07 1057.76,603.86 1057.83,604.42 1057.75,604.98 1057.54,605.77"/>
    </edge>
    <edge id=":gneJ23_1" function="internal">
        <lane id=":gneJ23_1_0" index="0" speed="13.89" length="0.92" shape="1054.47,604.87 1054.54,604.61 1054.57,604.42 1054.54,604.23 1054.47,603.97"/>
    </edge>
    <edge id=":gneJ25_0" function="internal">
        <lane id=":gneJ25_0_0" index="0" speed="8.14" length="9.77" shape="1387.42,122.43 1386.04,120.03 1384.35,118.31 1382.36,117.25 1380.05,116.87"/>
    </edge>
    <edge id=":gneJ25_1" function="internal">
        <lane id=":gneJ25_1_0" index="0" speed="8.01" length="13.92" shape="1387.42,122.43 1386.37,118.78 1386.72,115.64 1388.48,113.01 1391.64,110.90"/>
    </edge>
    <edge id=":gneJ25_2" function="internal">
        <lane id=":gneJ25_2_0" index="0" speed="6.51" length="8.86" shape="1393.02,113.79 1391.01,115.13 1389.89,116.80 1389.67,118.80 1390.34,121.13"/>
    </edge>
    <edge id=":gneJ25_3" function="internal">
        <lane id=":gneJ25_3_0" index="0" speed="13.89" length="13.47" shape="1393.02,113.79 1389.80,115.20 1386.72,116.17 1383.56,116.73 1380.05,116.87"/>
    </edge>
    <edge id=":gneJ25_4" function="internal">
        <lane id=":gneJ25_4_0" index="0" speed="13.89" length="12.00" shape="1380.12,113.67 1383.39,113.58 1386.06,113.13 1388.64,112.26 1391.64,110.90"/>
    </edge>
    <edge id=":gneJ26_0" function="internal">
        <lane id=":gneJ26_0_0" index="0" speed="6.50" length="4.16" shape="1534.97,447.70 1533.98,447.30 1533.15,446.73 1532.47,445.98 1531.94,445.05"/>
    </edge>
    <edge id=":gneJ26_1" function="internal">
        <lane id=":gneJ26_1_0" index="0" speed="4.13" length="1.39" shape="1534.86,443.75 1535.03,444.05 1535.26,444.30 1535.54,444.50 1535.87,444.63"/>
    </edge>
    <edge id=":gneJ27_0" function="internal">
        <lane id=":gneJ27_0_0" index="0" speed="4.15" length="1.34" shape="2000.95,584.24 2000.77,583.95 2000.54,583.71 2000.27,583.52 1999.95,583.40"/>
    </edge>
    <edge id=":gneJ27_1" function="internal">
        <lane id=":gneJ27_1_0" index="0" speed="6.54" length="4.03" shape="2000.85,580.32 2001.81,580.71 2002.62,581.26 2003.30,581.97 2003.83,582.85"/>
    </edge>
    <edge id=":gneJ3_0" function="internal">
        <lane id=":gneJ3_0_0" index="0" speed="6.09" length="7.21" shape="-107.19,741.76 -109.10,741.38 -110.50,740.49 -111.37,739.08 -111.71,737.16"/>
    </edge>
    <edge id=":gneJ3_1" function="internal">
        <lane id=":gneJ3_1_0" index="0" speed="3.91" length="2.40" shape="-108.52,737.03 -108.40,737.67 -108.11,738.14 -107.65,738.44 -107.01,738.57"/>
    </edge>
    <edge id=":gneJ33_0" function="internal">
        <lane id=":gneJ33_0_0" index="0" speed="4.16" length="1.32" shape="-17.97,-916.87 -18.25,-916.68 -18.47,-916.44 -18.64,-916.16 -18.75,-915.84"/>
    </edge>
    <edge id=":gneJ33_1" function="internal">
        <lane id=":gneJ33_1_0" index="0" speed="6.56" length="3.97" shape="-21.86,-916.59 -21.53,-917.55 -21.04,-918.38 -20.37,-919.08 -19.54,-919.66"/>
    </edge>
    <edge id=":gneJ34_0" function="internal">
        <lane id=":gneJ34_0_0" index="0" speed="8.10" length="11.16" shape="204.42,-1003.30 202.23,-1002.21 200.62,-1000.35 199.61,-997.72 199.19,-994.31"/>
    </edge>
    <edge id=":gneJ34_1" function="internal">
        <lane id=":gneJ34_1_0" index="0" speed="13.89" length="14.97" shape="204.42,-1003.30 190.22,-998.56"/>
    </edge>
    <edge id=":gneJ34_2" function="internal">
        <lane id=":gneJ34_2_0" index="0" speed="13.89" length="15.24" shape="189.10,-1001.56 203.56,-1006.38"/>
    </edge>
    <edge id=":gneJ34_3" function="internal">
        <lane id=":gneJ34_3_0" index="0" speed="5.83" length="9.13" shape="195.99,-994.41 195.71,-997.07 194.65,-998.64 192.82,-999.14 190.22,-998.56"/>
    </edge>
    <edge id=":gneJ34_4" function="internal">
        <lane id=":gneJ34_4_0" index="0" speed="9.38" length="15.23" shape="195.99,-994.41 196.59,-998.89 198.05,-1002.38 200.37,-1004.87 203.56,-1006.38"/>
    </edge>
    <edge id=":gneJ35_0" function="internal">
        <lane id=":gneJ35_0_0" index="0" speed="13.89" length="14.25" shape="197.83,-784.09 183.58,-784.42"/>
    </edge>
    <edge id=":gneJ35_1" function="internal">
        <lane id=":gneJ35_1_0" index="0" speed="6.51" length="9.01" shape="192.55,-793.07 192.81,-790.62 193.80,-788.84 195.51,-787.73 197.94,-787.29"/>
    </edge>
    <edge id=":gneJ35_2" function="internal">
        <lane id=":gneJ35_2_0" index="0" speed="8.06" length="14.14" shape="192.55,-793.07 191.88,-789.26 190.16,-786.54 187.40,-784.93 183.58,-784.42"/>
    </edge>
    <edge id=":gneJ35_3" function="internal">
        <lane id=":gneJ35_3_0" index="0" speed="6.57" length="9.07" shape="183.61,-787.62 186.05,-787.94 187.82,-788.98 188.92,-790.73 189.35,-793.18"/>
    </edge>
    <edge id=":gneJ35_4" function="internal">
        <lane id=":gneJ35_4_0" index="0" speed="13.89" length="14.34" shape="183.61,-787.62 197.94,-787.29"/>
    </edge>
    <edge id=":gneJ36_0" function="internal">
        <lane id=":gneJ36_0_0" index="0" speed="6.30" length="9.04" shape="894.24,-758.69 891.73,-758.58 889.94,-757.68 888.86,-755.99 888.49,-753.50"/>
    </edge>
    <edge id=":gneJ36_1" function="internal">
        <lane id=":gneJ36_1_0" index="0" speed="13.89" length="14.74" shape="894.24,-758.69 879.54,-759.70"/>
    </edge>
    <edge id=":gneJ36_2" function="internal">
        <lane id=":gneJ36_2_0" index="0" speed="7.04" length="9.92" shape="888.50,-768.36 888.88,-765.75 890.02,-763.80 891.92,-762.51 894.57,-761.87"/>
    </edge>
    <edge id=":gneJ36_3" function="internal">
        <lane id=":gneJ36_3_0" index="0" speed="13.89" length="14.86" shape="888.50,-768.36 888.49,-753.50"/>
    </edge>
    <edge id=":gneJ36_4" function="internal">
        <lane id=":gneJ36_4_0" index="0" speed="6.43" length="9.03" shape="879.65,-762.90 882.13,-763.17 883.89,-764.16 884.95,-765.89 885.30,-768.36"/>
    </edge>
    <edge id=":gneJ36_5" function="internal">
        <lane id=":gneJ36_5_0" index="0" speed="13.89" length="14.95" shape="879.65,-762.90 894.57,-761.87"/>
    </edge>
    <edge id=":gneJ36_6" function="internal">
        <lane id=":gneJ36_6_0" index="0" speed="6.76" length="9.57" shape="885.29,-753.51 884.94,-756.14 883.86,-758.05 882.06,-759.24 879.54,-759.70"/>
    </edge>
    <edge id=":gneJ36_7" function="internal">
        <lane id=":gneJ36_7_0" index="0" speed="13.89" length="14.85" shape="885.29,-753.51 885.30,-768.36"/>
    </edge>
    <edge id=":gneJ40_0" function="internal">
        <lane id=":gneJ40_0_0" index="0" speed="10.21" length="13.50" shape="1201.59,121.17 1198.71,117.80 1195.95,115.46 1193.33,114.13 1190.84,113.83"/>
    </edge>
    <edge id=":gneJ40_1" function="internal">
        <lane id=":gneJ40_1_0" index="0" speed="7.38" length="18.00" shape="1201.59,121.17 1198.77,116.34 1198.75,112.92 1201.52,110.93 1207.08,110.35"/>
    </edge>
    <edge id=":gneJ40_2" function="internal">
        <lane id=":gneJ40_2_0" index="0" speed="5.54" length="9.45" shape="1207.02,113.55 1204.10,113.86 1202.65,114.90 1202.66,116.69 1204.13,119.23"/>
    </edge>
    <edge id=":gneJ40_3" function="internal">
        <lane id=":gneJ40_3_0" index="0" speed="13.89" length="16.19" shape="1207.02,113.55 1203.08,113.50 1198.92,113.50 1194.76,113.59 1190.84,113.83"/>
    </edge>
    <edge id=":gneJ40_4" function="internal">
        <lane id=":gneJ40_4_0" index="0" speed="13.89" length="16.52" shape="1190.57,110.64 1194.55,110.40 1198.82,110.30 1203.09,110.30 1207.08,110.35"/>
    </edge>
    <edge id=":gneJ41_0" function="internal">
        <lane id=":gneJ41_0_0" index="0" speed="13.89" length="0.57" shape="1394.43,375.02 1394.38,374.86 1394.34,374.75 1394.28,374.65 1394.18,374.52"/>
    </edge>
    <edge id=":gneJ41_1" function="internal">
        <lane id=":gneJ41_1_0" index="0" speed="10.18" length="1.72" shape="1396.72,372.58 1397.03,372.99 1397.21,373.29 1397.35,373.61 1397.50,374.10"/>
    </edge>
    <edge id=":gneJ42_0" function="internal">
        <lane id=":gneJ42_0_0" index="0" speed="13.89" length="14.83" shape="1525.38,782.49 1510.57,783.46"/>
    </edge>
    <edge id=":gneJ42_1" function="internal">
        <lane id=":gneJ42_1_0" index="0" speed="7.44" length="10.31" shape="1517.82,773.29 1519.01,776.11 1520.61,778.05 1522.63,779.12 1525.07,779.30"/>
    </edge>
    <edge id=":gneJ42_2" function="internal">
        <lane id=":gneJ42_2_0" index="0" speed="7.62" length="15.25" shape="1517.82,773.29 1518.47,777.58 1517.48,780.71 1514.85,782.67 1510.57,783.46"/>
    </edge>
    <edge id=":gneJ42_3" function="internal">
        <lane id=":gneJ42_3_0" index="0" speed="6.03" length="9.07" shape="1510.44,780.26 1512.99,779.79 1514.55,778.63 1515.14,776.77 1514.75,774.21"/>
    </edge>
    <edge id=":gneJ42_4" function="internal">
        <lane id=":gneJ42_4_0" index="0" speed="13.89" length="14.66" shape="1510.44,780.26 1525.07,779.30"/>
    </edge>
    <edge id=":gneJ44_0" function="internal">
        <lane id=":gneJ44_0_0" index="0" speed="13.89" length="13.83" shape="1918.97,-208.18 1915.41,-208.44 1912.07,-208.58 1908.72,-208.60 1905.15,-208.52"/>
    </edge>
    <edge id=":gneJ44_1" function="internal">
        <lane id=":gneJ44_1_0" index="0" speed="6.46" length="9.03" shape="1914.20,-217.44 1914.30,-214.96 1915.17,-213.12 1916.81,-211.93 1919.23,-211.37"/>
    </edge>
    <edge id=":gneJ44_2" function="internal">
        <lane id=":gneJ44_2_0" index="0" speed="8.41" length="14.08" shape="1914.20,-217.44 1913.30,-213.66 1911.49,-210.91 1908.78,-209.19 1905.15,-208.52"/>
    </edge>
    <edge id=":gneJ44_3" function="internal">
        <lane id=":gneJ44_3_0" index="0" speed="6.99" length="9.43" shape="1905.03,-211.71 1907.42,-212.17 1909.22,-213.33 1910.42,-215.20 1911.02,-217.77"/>
    </edge>
    <edge id=":gneJ44_4" function="internal">
        <lane id=":gneJ44_4_0" index="0" speed="13.89" length="14.22" shape="1905.03,-211.71 1908.66,-211.80 1912.14,-211.77 1915.61,-211.63 1919.23,-211.37"/>
    </edge>
    <edge id=":gneJ45_0" function="internal">
        <lane id=":gneJ45_0_0" index="0" speed="5.89" length="9.11" shape="1950.77,-513.07 1948.26,-513.86 1946.37,-513.54 1945.11,-512.10 1944.47,-509.54"/>
    </edge>
    <edge id=":gneJ45_1" function="internal">
        <lane id=":gneJ45_1_0" index="0" speed="13.89" length="14.91" shape="1950.77,-513.07 1947.38,-514.64 1943.95,-516.09 1940.47,-517.40 1936.92,-518.56"/>
    </edge>
    <edge id=":gneJ45_2" function="internal">
        <lane id=":gneJ45_2_0" index="0" speed="6.57" length="9.87" shape="1948.99,-523.82 1948.08,-521.48 1948.30,-519.39 1949.66,-517.54 1952.16,-515.95"/>
    </edge>
    <edge id=":gneJ45_3" function="internal">
        <lane id=":gneJ45_3_0" index="0" speed="13.89" length="15.09" shape="1948.99,-523.82 1947.27,-520.48 1945.96,-516.94 1945.03,-513.26 1944.47,-509.54"/>
    </edge>
    <edge id=":gneJ45_4" function="internal">
        <lane id=":gneJ45_4_0" index="0" speed="7.53" length="10.05" shape="1937.83,-521.62 1940.30,-521.29 1942.53,-521.82 1944.51,-523.21 1946.24,-525.47"/>
    </edge>
    <edge id=":gneJ45_5" function="internal">
        <lane id=":gneJ45_5_0" index="0" speed="13.89" length="15.42" shape="1937.83,-521.62 1941.46,-520.44 1945.10,-519.07 1948.69,-517.55 1952.16,-515.95"/>
    </edge>
    <edge id=":gneJ45_6" function="internal">
        <lane id=":gneJ45_6_0" index="0" speed="7.52" length="10.65" shape="1941.29,-509.87 1941.29,-513.10 1940.57,-515.63 1939.11,-517.45 1936.92,-518.56"/>
    </edge>
    <edge id=":gneJ45_7" function="internal">
        <lane id=":gneJ45_7_0" index="0" speed="13.89" length="16.47" shape="1941.29,-509.87 1941.92,-513.80 1943.00,-517.92 1944.46,-521.92 1946.24,-525.47"/>
    </edge>
    <edge id=":gneJ46_0" function="internal">
        <lane id=":gneJ46_0_0" index="0" speed="6.90" length="9.77" shape="2296.53,-346.38 2294.27,-347.38 2292.11,-347.36 2290.05,-346.32 2288.08,-344.27"/>
    </edge>
    <edge id=":gneJ46_1" function="internal">
        <lane id=":gneJ46_1_0" index="0" speed="13.89" length="14.67" shape="2296.53,-346.38 2293.39,-348.35 2290.25,-350.17 2287.04,-351.88 2283.73,-353.52"/>
    </edge>
    <edge id=":gneJ46_2" function="internal">
        <lane id=":gneJ46_2_0" index="0" speed="13.89" length="15.09" shape="2285.11,-356.41 2288.48,-354.73 2291.81,-352.95 2295.09,-351.06 2298.28,-349.06"/>
    </edge>
    <edge id=":gneJ46_3" function="internal">
        <lane id=":gneJ46_3_0" index="0" speed="6.12" length="9.06" shape="2285.52,-346.19 2286.75,-348.43 2286.86,-350.40 2285.85,-352.10 2283.73,-353.52"/>
    </edge>
    <edge id=":gneJ46_4" function="internal">
        <lane id=":gneJ46_4_0" index="0" speed="8.33" length="14.69" shape="2285.52,-346.19 2288.43,-349.19 2291.53,-350.67 2294.81,-350.63 2298.28,-349.06"/>
    </edge>
    <edge id=":gneJ47_0" function="internal">
        <lane id=":gneJ47_0_0" index="0" speed="7.01" length="9.65" shape="3076.43,-220.37 3075.95,-222.77 3074.74,-224.56 3072.78,-225.74 3070.08,-226.30"/>
    </edge>
    <edge id=":gneJ47_1" function="internal">
        <lane id=":gneJ47_1_0" index="0" speed="13.89" length="14.41" shape="3076.43,-220.37 3075.96,-234.79"/>
        <lane id=":gneJ47_1_1" index="1" speed="13.89" length="14.41" shape="3079.62,-220.49 3079.15,-234.88"/>
    </edge>
    <edge id=":gneJ47_3" function="internal">
        <lane id=":gneJ47_3_0" index="0" speed="13.89" length="14.35" shape="3085.55,-235.07 3086.02,-220.73"/>
        <lane id=":gneJ47_3_1" index="1" speed="13.89" length="14.35" shape="3082.35,-234.97 3082.82,-220.61"/>
    </edge>
    <edge id=":gneJ47_5" function="internal">
        <lane id=":gneJ47_5_0" index="0" speed="6.28" length="9.04" shape="3070.35,-229.49 3072.86,-229.64 3074.64,-230.57 3075.67,-232.29 3075.96,-234.79"/>
    </edge>
    <edge id=":gneJ47_6" function="internal">
        <lane id=":gneJ47_6_0" index="0" speed="9.08" length="16.85" shape="3070.35,-229.49 3075.70,-228.55 3079.56,-226.76 3081.93,-224.11 3082.82,-220.61"/>
    </edge>
    <edge id=":gneJ5_0" function="internal">
        <lane id=":gneJ5_0_0" index="0" speed="6.88" length="9.53" shape="-31.50,-786.43 -34.19,-786.11 -36.19,-785.11 -37.49,-783.42 -38.11,-781.05"/>
    </edge>
    <edge id=":gneJ5_1" function="internal">
        <lane id=":gneJ5_1_0" index="0" speed="7.83" length="14.58" shape="-31.50,-786.43 -35.51,-787.05 -38.23,-788.81 -39.66,-791.71 -39.80,-795.76"/>
    </edge>
    <edge id=":gneJ5_2" function="internal">
        <lane id=":gneJ5_2_0" index="0" speed="6.30" length="9.04" shape="-36.62,-795.42 -36.53,-792.90 -35.64,-791.10 -33.96,-790.01 -31.47,-789.63"/>
    </edge>
    <edge id=":gneJ5_3" function="internal">
        <lane id=":gneJ5_3_0" index="0" speed="13.89" length="14.44" shape="-36.62,-795.42 -38.11,-781.05"/>
    </edge>
    <edge id=":gneJ5_4" function="internal">
        <lane id=":gneJ5_4_0" index="0" speed="13.89" length="14.47" shape="-41.29,-781.36 -39.80,-795.76"/>
    </edge>
    <edge id=":gneJ51_0" function="internal">
        <lane id=":gneJ51_0_0" index="0" speed="13.89" length="14.35" shape="1252.29,-721.26 1248.76,-722.17 1245.30,-722.83 1241.81,-723.32 1238.18,-723.71"/>
    </edge>
    <edge id=":gneJ51_1" function="internal">
        <lane id=":gneJ51_1_0" index="0" speed="10.13" length="12.15" shape="1245.83,-733.46 1247.32,-729.98 1249.05,-727.29 1251.01,-725.41 1253.20,-724.33"/>
    </edge>
    <edge id=":gneJ51_2" function="internal">
        <lane id=":gneJ51_2_0" index="0" speed="7.45" length="16.27" shape="1245.83,-733.46 1246.80,-728.76 1245.85,-725.57 1242.98,-723.88 1238.18,-723.71"/>
    </edge>
    <edge id=":gneJ51_3" function="internal">
        <lane id=":gneJ51_3_0" index="0" speed="5.76" length="9.17" shape="1238.50,-726.90 1241.21,-726.99 1242.83,-727.94 1243.36,-729.74 1242.81,-732.39"/>
    </edge>
    <edge id=":gneJ51_4" function="internal">
        <lane id=":gneJ51_4_0" index="0" speed="13.89" length="14.95" shape="1238.50,-726.90 1242.22,-726.48 1245.92,-725.95 1249.58,-725.26 1253.20,-724.33"/>
    </edge>
    <edge id=":gneJ52_0" function="internal">
        <lane id=":gneJ52_0_0" index="0" speed="7.47" length="12.02" shape="1159.42,-1591.74 1158.49,-1595.63 1157.03,-1598.30 1155.06,-1599.77 1152.56,-1600.02"/>
    </edge>
    <edge id=":gneJ52_1" function="internal">
        <lane id=":gneJ52_1_0" index="0" speed="8.55" length="17.27" shape="1159.42,-1591.74 1159.21,-1597.14 1160.39,-1601.09 1162.98,-1603.61 1166.96,-1604.68"/>
    </edge>
    <edge id=":gneJ52_2" function="internal">
        <lane id=":gneJ52_2_0" index="0" speed="6.35" length="9.04" shape="1167.45,-1598.30 1165.00,-1597.76 1163.38,-1596.56 1162.57,-1594.72 1162.59,-1592.21"/>
    </edge>
    <edge id=":gneJ52_3" function="internal">
        <lane id=":gneJ52_3_0" index="0" speed="13.89" length="14.72" shape="1167.20,-1601.49 1152.56,-1600.02"/>
    </edge>
    <edge id=":gneJ52_4" function="internal">
        <lane id=":gneJ52_4_0" index="0" speed="13.89" length="15.14" shape="1152.15,-1603.19 1155.45,-1604.11 1158.44,-1605.56 1161.92,-1606.99 1166.72,-1607.88"/>
        <lane id=":gneJ52_4_1" index="1" speed="13.89" length="15.14" shape="1152.15,-1603.19 1166.96,-1604.68"/>
    </edge>
    <edge id=":gneJ6_0" function="internal">
        <lane id=":gneJ6_0_0" index="0" speed="13.89" length="0.89" shape="564.41,-1098.02 564.16,-1098.12 563.98,-1098.16 563.80,-1098.16 563.54,-1098.13"/>
    </edge>
    <edge id=":gneJ6_1" function="internal">
        <lane id=":gneJ6_1_0" index="0" speed="7.42" length="2.68" shape="563.03,-1101.28 563.81,-1101.40 564.36,-1101.40 564.90,-1101.27 565.63,-1100.98"/>
    </edge>
    <edge id=":gneJ7_0" function="internal">
        <lane id=":gneJ7_0_0" index="0" speed="7.26" length="9.98" shape="885.02,-1019.43 884.62,-1021.84 883.42,-1023.72 881.43,-1025.07 878.64,-1025.89"/>
    </edge>
    <edge id=":gneJ7_1" function="internal">
        <lane id=":gneJ7_1_0" index="0" speed="13.89" length="14.50" shape="885.02,-1019.43 885.01,-1033.93"/>
    </edge>
    <edge id=":gneJ7_2" function="internal">
        <lane id=":gneJ7_2_0" index="0" speed="13.89" length="14.49" shape="888.21,-1033.93 888.22,-1019.44"/>
    </edge>
    <edge id=":gneJ7_3" function="internal">
        <lane id=":gneJ7_3_0" index="0" speed="6.16" length="9.05" shape="879.19,-1029.04 881.74,-1028.96 883.56,-1029.75 884.65,-1031.41 885.01,-1033.93"/>
    </edge>
    <edge id=":gneJ7_4" function="internal">
        <lane id=":gneJ7_4_0" index="0" speed="8.64" length="14.51" shape="879.19,-1029.04 883.14,-1027.85 885.96,-1025.85 887.65,-1023.05 888.22,-1019.44"/>
    </edge>
    <edge id=":gneJ8_0" function="internal">
        <lane id=":gneJ8_0_0" index="0" speed="6.10" length="7.05" shape="884.91,-1564.88 885.17,-1566.76 885.96,-1568.19 887.27,-1569.15 889.10,-1569.64"/>
    </edge>
    <edge id=":gneJ8_1" function="internal">