<routes>
    <!-- bigger routes         original values: 51  -->
    <flow id="bottom0_top4" color="255,0,0"         from="bottom0A0" to="E4top4"     begin="0" end="100" number="61"/>
    <flow id="top4_bottom0" color="150,0,0"         from="top4E4"    to="A0bottom0"  begin="0" end="100" number="61"/>
    
    <flow id="left0_right4" color="0,255,0"         from="left0A0"   to="E4right4"   begin="0" end="100" number="61"/>
    <flow id="right4_left0" color="0,150,0"         from="right4E4"  to="A0left0"    begin="0" end="100" number="61"/>

    <flow id="bottom4_top0" color="0,0,255"         from="bottom4E0" to="A4top0"     begin="0" end="100" number="61"/>
    <flow id="top0_bottom4" color="0,0,150"         from="top0A4"    to="E0bottom4"  begin="0" end="100" number="61"/>
    
    <flow id="left4_right0" color="255,255,0"       from="left4A4"   to="E0right0"   begin="0" end="100" number="61"/>
    <flow id="right0_left4" color="150,150,0"       from="right0E0"  to="A4left4"    begin="0" end="100" number="61"/>
    
    
    <!-- medium routes         original values: 43 -->
    <flow id="bottom1_top3" color="0,255,255"       from="bottom1B0" to="D4top3"     begin="0" end="100" number="53"/> 
    <flow id="top3_bottom1" color="0,150,150"       from="top3D4"    to="B0bottom1"  begin="0" end="100" number="53"/>

    <flow id="bottom3_top1" color="255,0,255"       from="bottom3D0" to="B4top1"     begin="0" end="100" number="53"/>
    <flow id="top1_bottom3" color="150,0,150"       from="top1B4"    to="D0bottom3"  begin="0" end="100" number="53"/>
    
    <flow id="left1_right3" color="255,255,255"     from="left1A1"   to="E3right3"   begin="0" end="100" number="53"/>
    <flow id="right3_left1" color="150,150,150"     from="right3E3"  to="A1left1"    begin="0" end="100" number="53"/>
    
    <flow id="left3_right1" color="255,150,0"       from="left3A3"   to="E1right1"   begin="0" end="100" number="53"/>
    <flow id="right1_left3" color="150,100,0"       from="right1E1"  to="A3left3"    begin="0" end="100" number="53"/>


    <!-- smaller routes -->
    <!-- <flow id="bottom2_top2" from="bottom2C0" to="C4top2"     begin="0" end="100" number="80"/> -->
    <!-- <flow id="top2_bottom2" from="top2C4"    to="C0bottom2"  begin="0" end="100" number="80"/> -->

    <!-- <flow id="left2_right2" from="left2A2"   to="E2right2"   begin="0" end="100" number="80"/> -->
    <!-- <flow id="right2_left2" from="right2E2"  to="A2left2"    begin="0" end="100" number="80"/> -->
</routes>
