<?xml version="1.0" encoding="UTF-8"?>

<!-- generated on 2022-03-10 17:49:11 by Eclipse SUMO netedit Version 1.11.0
<configuration xmlns:xsi="http://www.w3.org/2001/XMLSchema-instance" xsi:noNamespaceSchemaLocation="http://sumo.dlr.de/xsd/netconvertConfiguration.xsd">

    <input>
        <sumo-net-file value="scenario/5x5_allway_stop/5x5.net.xml"/>
    </input>

    <output>
        <output-file value="scenario/5x5_allway_stop/5x5.net.xml"/>
    </output>

    <processing>
        <geometry.min-radius.fix.railways value="false"/>
        <geometry.max-grade.fix value="false"/>
        <offset.disable-normalization value="true"/>
        <lefthand value="false"/>
    </processing>

    <junctions>
        <no-turnarounds value="true"/>
        <junctions.corner-detail value="5"/>
        <junctions.limit-turn-speed value="5.5"/>
        <rectangular-lane-cut value="false"/>
    </junctions>

    <pedestrian>
        <walkingareas value="false"/>
    </pedestrian>

    <report>
        <aggregate-warnings value="5"/>
    </report>

</configuration>
-->

<net version="1.9" junctionCornerDetail="5" limitTurnSpeed="5.50" xmlns:xsi="http://www.w3.org/2001/XMLSchema-instance" xsi:noNamespaceSchemaLocation="http://sumo.dlr.de/xsd/net_file.xsd">

    <location netOffset="0.00,0.00" convBoundary="0.00,0.00,1000.00,1000.00" origBoundary="0.00,0.00,1000.00,1000.00" projParameter="!"/>

    <edge id=":A0_0" function="internal">
        <lane id=":A0_0_0" index="0" speed="6.51" length="9.03" shape="95.20,110.40 94.85,107.95 93.80,106.20 92.05,105.15 89.60,104.80"/>
    </edge>
    <edge id=":A0_1" function="internal">
        <lane id=":A0_1_0" index="0" speed="11.11" length="20.80" shape="95.20,110.40 95.20,89.60"/>
        <lane id=":A0_1_1" index="1" speed="11.11" length="20.80" shape="98.40,110.40 98.40,89.60"/>
    </edge>
    <edge id=":A0_3" function="internal">
        <lane id=":A0_3_0" index="0" speed="9.26" length="19.35" shape="98.40,110.40 99.15,105.15 101.40,101.40 105.15,99.15 110.40,98.40"/>
    </edge>
    <edge id=":A0_4" function="internal">
        <lane id=":A0_4_0" index="0" speed="6.51" length="9.03" shape="110.40,104.80 107.95,105.15 106.20,106.20 105.15,107.95 104.80,110.40"/>
    </edge>
    <edge id=":A0_5" function="internal">
        <lane id=":A0_5_0" index="0" speed="11.11" length="20.80" shape="110.40,104.80 89.60,104.80"/>
        <lane id=":A0_5_1" index="1" speed="11.11" length="20.80" shape="110.40,101.60 89.60,101.60"/>
    </edge>
    <edge id=":A0_7" function="internal">
        <lane id=":A0_7_0" index="0" speed="9.26" length="19.35" shape="110.40,101.60 105.15,100.85 101.40,98.60 99.15,94.85 98.40,89.60"/>
    </edge>
    <edge id=":A0_8" function="internal">
        <lane id=":A0_8_0" index="0" speed="6.51" length="9.03" shape="104.80,89.60 105.15,92.05 106.20,93.80 107.95,94.85 110.40,95.20"/>
    </edge>
    <edge id=":A0_9" function="internal">
        <lane id=":A0_9_0" index="0" speed="11.11" length="20.80" shape="104.80,89.60 104.80,110.40"/>
        <lane id=":A0_9_1" index="1" speed="11.11" length="20.80" shape="101.60,89.60 101.60,110.40"/>
    </edge>
    <edge id=":A0_11" function="internal">
        <lane id=":A0_11_0" index="0" speed="9.26" length="19.35" shape="101.60,89.60 100.85,94.85 98.60,98.60 94.85,100.85 89.60,101.60"/>
    </edge>
    <edge id=":A0_12" function="internal">
        <lane id=":A0_12_0" index="0" speed="6.51" length="9.03" shape="89.60,95.20 92.05,94.85 93.80,93.80 94.85,92.05 95.20,89.60"/>
    </edge>
    <edge id=":A0_13" function="internal">
        <lane id=":A0_13_0" index="0" speed="11.11" length="20.80" shape="89.60,95.20 110.40,95.20"/>
        <lane id=":A0_13_1" index="1" speed="11.11" length="20.80" shape="89.60,98.40 110.40,98.40"/>
    </edge>
    <edge id=":A0_15" function="internal">
        <lane id=":A0_15_0" index="0" speed="9.26" length="19.35" shape="89.60,98.40 94.85,99.15 98.60,101.40 100.85,105.15 101.60,110.40"/>
    </edge>
    <edge id=":A1_0" function="internal">
        <lane id=":A1_0_0" index="0" speed="6.51" length="9.03" shape="95.20,310.40 94.85,307.95 93.80,306.20 92.05,305.15 89.60,304.80"/>
    </edge>
    <edge id=":A1_1" function="internal">
        <lane id=":A1_1_0" index="0" speed="11.11" length="20.80" shape="95.20,310.40 95.20,289.60"/>
        <lane id=":A1_1_1" index="1" speed="11.11" length="20.80" shape="98.40,310.40 98.40,289.60"/>
    </edge>
    <edge id=":A1_3" function="internal">
        <lane id=":A1_3_0" index="0" speed="9.26" length="19.35" shape="98.40,310.40 99.15,305.15 101.40,301.40 105.15,299.15 110.40,298.40"/>
    </edge>
    <edge id=":A1_4" function="internal">
        <lane id=":A1_4_0" index="0" speed="6.51" length="9.03" shape="110.40,304.80 107.95,305.15 106.20,306.20 105.15,307.95 104.80,310.40"/>
    </edge>
    <edge id=":A1_5" function="internal">
        <lane id=":A1_5_0" index="0" speed="11.11" length="20.80" shape="110.40,304.80 89.60,304.80"/>
        <lane id=":A1_5_1" index="1" speed="11.11" length="20.80" shape="110.40,301.60 89.60,301.60"/>
    </edge>
    <edge id=":A1_7" function="internal">
        <lane id=":A1_7_0" index="0" speed="9.26" length="19.35" shape="110.40,301.60 105.15,300.85 101.40,298.60 99.15,294.85 98.40,289.60"/>
    </edge>
    <edge id=":A1_8" function="internal">
        <lane id=":A1_8_0" index="0" speed="6.51" length="9.03" shape="104.80,289.60 105.15,292.05 106.20,293.80 107.95,294.85 110.40,295.20"/>
    </edge>
    <edge id=":A1_9" function="internal">
        <lane id=":A1_9_0" index="0" speed="11.11" length="20.80" shape="104.80,289.60 104.80,310.40"/>
        <lane id=":A1_9_1" index="1" speed="11.11" length="20.80" shape="101.60,289.60 101.60,310.40"/>
    </edge>
    <edge id=":A1_11" function="internal">
        <lane id=":A1_11_0" index="0" speed="9.26" length="19.35" shape="101.60,289.60 100.85,294.85 98.60,298.60 94.85,300.85 89.60,301.60"/>
    </edge>
    <edge id=":A1_12" function="internal">
        <lane id=":A1_12_0" index="0" speed="6.51" length="9.03" shape="89.60,295.20 92.05,294.85 93.80,293.80 94.85,292.05 95.20,289.60"/>
    </edge>
    <edge id=":A1_13" function="internal">
        <lane id=":A1_13_0" index="0" speed="11.11" length="20.80" shape="89.60,295.20 110.40,295.20"/>
        <lane id=":A1_13_1" index="1" speed="11.11" length="20.80" shape="89.60,298.40 110.40,298.40"/>
    </edge>
    <edge id=":A1_15" function="internal">
        <lane id=":A1_15_0" index="0" speed="9.26" length="19.35" shape="89.60,298.40 94.85,299.15 98.60,301.40 100.85,305.15 101.60,310.40"/>
    </edge>
    <edge id=":A2_0" function="internal">
        <lane id=":A2_0_0" index="0" speed="6.51" length="9.03" shape="95.20,510.40 94.85,507.95 93.80,506.20 92.05,505.15 89.60,504.80"/>
    </edge>
    <edge id=":A2_1" function="internal">
        <lane id=":A2_1_0" index="0" speed="11.11" length="20.80" shape="95.20,510.40 95.20,489.60"/>
        <lane id=":A2_1_1" index="1" speed="11.11" length="20.80" shape="98.40,510.40 98.40,489.60"/>
    </edge>
    <edge id=":A2_3" function="internal">
        <lane id=":A2_3_0" index="0" speed="9.26" length="19.35" shape="98.40,510.40 99.15,505.15 101.40,501.40 105.15,499.15 110.40,498.40"/>
    </edge>
    <edge id=":A2_4" function="internal">
        <lane id=":A2_4_0" index="0" speed="6.51" length="9.03" shape="110.40,504.80 107.95,505.15 106.20,506.20 105.15,507.95 104.80,510.40"/>
    </edge>
    <edge id=":A2_5" function="internal">
        <lane id=":A2_5_0" index="0" speed="15.28" length="20.80" shape="110.40,504.80 89.60,504.80"/>
        <lane id=":A2_5_1" index="1" speed="15.28" length="20.80" shape="110.40,501.60 89.60,501.60"/>
    </edge>
    <edge id=":A2_7" function="internal">
        <lane id=":A2_7_0" index="0" speed="9.26" length="19.35" shape="110.40,501.60 105.15,500.85 101.40,498.60 99.15,494.85 98.40,489.60"/>
    </edge>
    <edge id=":A2_8" function="internal">
        <lane id=":A2_8_0" index="0" speed="6.51" length="9.03" shape="104.80,489.60 105.15,492.05 106.20,493.80 107.95,494.85 110.40,495.20"/>
    </edge>
    <edge id=":A2_9" function="internal">
        <lane id=":A2_9_0" index="0" speed="11.11" length="20.80" shape="104.80,489.60 104.80,510.40"/>
        <lane id=":A2_9_1" index="1" speed="11.11" length="20.80" shape="101.60,489.60 101.60,510.40"/>
    </edge>
    <edge id=":A2_11" function="internal">
        <lane id=":A2_11_0" index="0" speed="9.26" length="19.35" shape="101.60,489.60 100.85,494.85 98.60,498.60 94.85,500.85 89.60,501.60"/>
    </edge>
    <edge id=":A2_12" function="internal">
        <lane id=":A2_12_0" index="0" speed="6.51" length="9.03" shape="89.60,495.20 92.05,494.85 93.80,493.80 94.85,492.05 95.20,489.60"/>
    </edge>
    <edge id=":A2_13" function="internal">
        <lane id=":A2_13_0" index="0" speed="15.28" length="20.80" shape="89.60,495.20 110.40,495.20"/>
        <lane id=":A2_13_1" index="1" speed="15.28" length="20.80" shape="89.60,498.40 110.40,498.40"/>
    </edge>
    <edge id=":A2_15" function="internal">
        <lane id=":A2_15_0" index="0" speed="9.26" length="19.35" shape="89.60,498.40 94.85,499.15 98.60,501.40 100.85,505.15 101.60,510.40"/>
    </edge>
    <edge id=":A3_0" function="internal">
        <lane id=":A3_0_0" index="0" speed="6.51" length="9.03" shape="95.20,710.40 94.85,707.95 93.80,706.20 92.05,705.15 89.60,704.80"/>
    </edge>
    <edge id=":A3_1" function="internal">
        <lane id=":A3_1_0" index="0" speed="11.11" length="20.80" shape="95.20,710.40 95.20,689.60"/>
        <lane id=":A3_1_1" index="1" speed="11.11" length="20.80" shape="98.40,710.40 98.40,689.60"/>
    </edge>
    <edge id=":A3_3" function="internal">
        <lane id=":A3_3_0" index="0" speed="9.26" length="19.35" shape="98.40,710.40 99.15,705.15 101.40,701.40 105.15,699.15 110.40,698.40"/>
    </edge>
    <edge id=":A3_4" function="internal">
        <lane id=":A3_4_0" index="0" speed="6.51" length="9.03" shape="110.40,704.80 107.95,705.15 106.20,706.20 105.15,707.95 104.80,710.40"/>
    </edge>
    <edge id=":A3_5" function="internal">
        <lane id=":A3_5_0" index="0" speed="11.11" length="20.80" shape="110.40,704.80 89.60,704.80"/>
        <lane id=":A3_5_1" index="1" speed="11.11" length="20.80" shape="110.40,701.60 89.60,701.60"/>
    </edge>
    <edge id=":A3_7" function="internal">
        <lane id=":A3_7_0" index="0" speed="9.26" length="19.35" shape="110.40,701.60 105.15,700.85 101.40,698.60 99.15,694.85 98.40,689.60"/>
    </edge>
    <edge id=":A3_8" function="internal">
        <lane id=":A3_8_0" index="0" speed="6.51" length="9.03" shape="104.80,689.60 105.15,692.05 106.20,693.80 107.95,694.85 110.40,695.20"/>
    </edge>
    <edge id=":A3_9" function="internal">
        <lane id=":A3_9_0" index="0" speed="11.11" length="20.80" shape="104.80,689.60 104.80,710.40"/>
        <lane id=":A3_9_1" index="1" speed="11.11" length="20.80" shape="101.60,689.60 101.60,710.40"/>
    </edge>
    <edge id=":A3_11" function="internal">
        <lane id=":A3_11_0" index="0" speed="9.26" length="19.35" shape="101.60,689.60 100.85,694.85 98.60,698.60 94.85,700.85 89.60,701.60"/>
    </edge>
    <edge id=":A3_12" function="internal">
        <lane id=":A3_12_0" index="0" speed="6.51" length="9.03" shape="89.60,695.20 92.05,694.85 93.80,693.80 94.85,692.05 95.20,689.60"/>
    </edge>
    <edge id=":A3_13" function="internal">
        <lane id=":A3_13_0" index="0" speed="11.11" length="20.80" shape="89.60,695.20 110.40,695.20"/>
        <lane id=":A3_13_1" index="1" speed="11.11" length="20.80" shape="89.60,698.40 110.40,698.40"/>
    </edge>
    <edge id=":A3_15" function="internal">
        <lane id=":A3_15_0" index="0" speed="9.26" length="19.35" shape="89.60,698.40 94.85,699.15 98.60,701.40 100.85,705.15 101.60,710.40"/>
    </edge>
    <edge id=":A4_0" function="internal">
        <lane id=":A4_0_0" index="0" speed="6.51" length="9.03" shape="95.20,910.40 94.85,907.95 93.80,906.20 92.05,905.15 89.60,904.80"/>
    </edge>
    <edge id=":A4_1" function="internal">
        <lane id=":A4_1_0" index="0" speed="11.11" length="20.80" shape="95.20,910.40 95.20,889.60"/>
        <lane id=":A4_1_1" index="1" speed="11.11" length="20.80" shape="98.40,910.40 98.40,889.60"/>
    </edge>
    <edge id=":A4_3" function="internal">
        <lane id=":A4_3_0" index="0" speed="9.26" length="19.35" shape="98.40,910.40 99.15,905.15 101.40,901.40 105.15,899.15 110.40,898.40"/>
    </edge>
    <edge id=":A4_4" function="internal">
        <lane id=":A4_4_0" index="0" speed="6.51" length="9.03" shape="110.40,904.80 107.95,905.15 106.20,906.20 105.15,907.95 104.80,910.40"/>
    </edge>
    <edge id=":A4_5" function="internal">
        <lane id=":A4_5_0" index="0" speed="11.11" length="20.80" shape="110.40,904.80 89.60,904.80"/>
        <lane id=":A4_5_1" index="1" speed="11.11" length="20.80" shape="110.40,901.60 89.60,901.60"/>
    </edge>
    <edge id=":A4_7" function="internal">
        <lane id=":A4_7_0" index="0" speed="9.26" length="19.35" shape="110.40,901.60 105.15,900.85 101.40,898.60 99.15,894.85 98.40,889.60"/>
    </edge>
    <edge id=":A4_8" function="internal">
        <lane id=":A4_8_0" index="0" speed="6.51" length="9.03" shape="104.80,889.60 105.15,892.05 106.20,893.80 107.95,894.85 110.40,895.20"/>
    </edge>
    <edge id=":A4_9" function="internal">
        <lane id=":A4_9_0" index="0" speed="11.11" length="20.80" shape="104.80,889.60 104.80,910.40"/>
        <lane id=":A4_9_1" index="1" speed="11.11" length="20.80" shape="101.60,889.60 101.60,910.40"/>
    </edge>
    <edge id=":A4_11" function="internal">
        <lane id=":A4_11_0" index="0" speed="9.26" length="19.35" shape="101.60,889.60 100.85,894.85 98.60,898.60 94.85,900.85 89.60,901.60"/>
    </edge>
    <edge id=":A4_12" function="internal">
        <lane id=":A4_12_0" index="0" speed="6.51" length="9.03" shape="89.60,895.20 92.05,894.85 93.80,893.80 94.85,892.05 95.20,889.60"/>
    </edge>
    <edge id=":A4_13" function="internal">
        <lane id=":A4_13_0" index="0" speed="11.11" length="20.80" shape="89.60,895.20 110.40,895.20"/>
        <lane id=":A4_13_1" index="1" speed="11.11" length="20.80" shape="89.60,898.40 110.40,898.40"/>
    </edge>
    <edge id=":A4_15" function="internal">
        <lane id=":A4_15_0" index="0" speed="9.26" length="19.35" shape="89.60,898.40 94.85,899.15 98.60,901.40 100.85,905.15 101.60,910.40"/>
    </edge>
    <edge id=":B0_0" function="internal">
        <lane id=":B0_0_0" index="0" speed="6.51" length="9.03" shape="295.20,110.40 294.85,107.95 293.80,106.20 292.05,105.15 289.60,104.80"/>
    </edge>
    <edge id=":B0_1" function="internal">
        <lane id=":B0_1_0" index="0" speed="11.11" length="20.80" shape="295.20,110.40 295.20,89.60"/>
        <lane id=":B0_1_1" index="1" speed="11.11" length="20.80" shape="298.40,110.40 298.40,89.60"/>
    </edge>
    <edge id=":B0_3" function="internal">
        <lane id=":B0_3_0" index="0" speed="9.26" length="19.35" shape="298.40,110.40 299.15,105.15 301.40,101.40 305.15,99.15 310.40,98.40"/>
    </edge>
    <edge id=":B0_4" function="internal">
        <lane id=":B0_4_0" index="0" speed="6.51" length="9.03" shape="310.40,104.80 307.95,105.15 306.20,106.20 305.15,107.95 304.80,110.40"/>
    </edge>
    <edge id=":B0_5" function="internal">
        <lane id=":B0_5_0" index="0" speed="11.11" length="20.80" shape="310.40,104.80 289.60,104.80"/>
        <lane id=":B0_5_1" index="1" speed="11.11" length="20.80" shape="310.40,101.60 289.60,101.60"/>
    </edge>
    <edge id=":B0_7" function="internal">
        <lane id=":B0_7_0" index="0" speed="9.26" length="19.35" shape="310.40,101.60 305.15,100.85 301.40,98.60 299.15,94.85 298.40,89.60"/>
    </edge>
    <edge id=":B0_8" function="internal">
        <lane id=":B0_8_0" index="0" speed="6.51" length="9.03" shape="304.80,89.60 305.15,92.05 306.20,93.80 307.95,94.85 310.40,95.20"/>
    </edge>
    <edge id=":B0_9" function="internal">
        <lane id=":B0_9_0" index="0" speed="11.11" length="20.80" shape="304.80,89.60 304.80,110.40"/>
        <lane id=":B0_9_1" index="1" speed="11.11" length="20.80" shape="301.60,89.60 301.60,110.40"/>
    </edge>
    <edge id=":B0_11" function="internal">
        <lane id=":B0_11_0" index="0" speed="9.26" length="19.35" shape="301.60,89.60 300.85,94.85 298.60,98.60 294.85,100.85 289.60,101.60"/>
    </edge>
    <edge id=":B0_12" function="internal">
        <lane id=":B0_12_0" index="0" speed="6.51" length="9.03" shape="289.60,95.20 292.05,94.85 293.80,93.80 294.85,92.05 295.20,89.60"/>
    </edge>
    <edge id=":B0_13" function="internal">
        <lane id=":B0_13_0" index="0" speed="11.11" length="20.80" shape="289.60,95.20 310.40,95.20"/>
        <lane id=":B0_13_1" index="1" speed="11.11" length="20.80" shape="289.60,98.40 310.40,98.40"/>
    </edge>
    <edge id=":B0_15" function="internal">
        <lane id=":B0_15_0" index="0" speed="9.26" length="19.35" shape="289.60,98.40 294.85,99.15 298.60,101.40 300.85,105.15 301.60,110.40"/>
    </edge>
    <edge id=":B1_0" function="internal">
        <lane id=":B1_0_0" index="0" speed="6.51" length="9.03" shape="295.20,310.40 294.85,307.95 293.80,306.20 292.05,305.15 289.60,304.80"/>
    </edge>
    <edge id=":B1_1" function="internal">
        <lane id=":B1_1_0" index="0" speed="11.11" length="20.80" shape="295.20,310.40 295.20,289.60"/>
        <lane id=":B1_1_1" index="1" speed="11.11" length="20.80" shape="298.40,310.40 298.40,289.60"/>
    </edge>
    <edge id=":B1_3" function="internal">
        <lane id=":B1_3_0" index="0" speed="9.26" length="19.35" shape="298.40,310.40 299.15,305.15 301.40,301.40 305.15,299.15 310.40,298.40"/>
    </edge>
    <edge id=":B1_4" function="internal">
        <lane id=":B1_4_0" index="0" speed="6.51" length="9.03" shape="310.40,304.80 307.95,305.15 306.20,306.20 305.15,307.95 304.80,310.40"/>
    </edge>
    <edge id=":B1_5" function="internal">
        <lane id=":B1_5_0" index="0" speed="11.11" length="20.80" shape="310.40,304.80 289.60,304.80"/>
        <lane id=":B1_5_1" index="1" speed="11.11" length="20.80" shape="310.40,301.60 289.60,301.60"/>
    </edge>
    <edge id=":B1_7" function="internal">
        <lane id=":B1_7_0" index="0" speed="9.26" length="19.35" shape="310.40,301.60 305.15,300.85 301.40,298.60 299.15,294.85 298.40,289.60"/>
    </edge>
    <edge id=":B1_8" function="internal">
        <lane id=":B1_8_0" index="0" speed="6.51" length="9.03" shape="304.80,289.60 305.15,292.05 306.20,293.80 307.95,294.85 310.40,295.20"/>
    </edge>
    <edge id=":B1_9" function="internal">
        <lane id=":B1_9_0" index="0" speed="11.11" length="20.80" shape="304.80,289.60 304.80,310.40"/>
        <lane id=":B1_9_1" index="1" speed="11.11" length="20.80" shape="301.60,289.60 301.60,310.40"/>
    </edge>
    <edge id=":B1_11" function="internal">
        <lane id=":B1_11_0" index="0" speed="9.26" length="19.35" shape="301.60,289.60 300.85,294.85 298.60,298.60 294.85,300.85 289.60,301.60"/>
    </edge>
    <edge id=":B1_12" function="internal">
        <lane id=":B1_12_0" index="0" speed="6.51" length="9.03" shape="289.60,295.20 292.05,294.85 293.80,293.80 294.85,292.05 295.20,289.60"/>
    </edge>
    <edge id=":B1_13" function="internal">
        <lane id=":B1_13_0" index="0" speed="11.11" length="20.80" shape="289.60,295.20 310.40,295.20"/>
        <lane id=":B1_13_1" index="1" speed="11.11" length="20.80" shape="289.60,298.40 310.40,298.40"/>
    </edge>
    <edge id=":B1_15" function="internal">
        <lane id=":B1_15_0" index="0" speed="9.26" length="19.35" shape="289.60,298.40 294.85,299.15 298.60,301.40 300.85,305.15 301.60,310.40"/>
    </edge>
    <edge id=":B2_0" function="internal">
        <lane id=":B2_0_0" index="0" speed="6.51" length="9.03" shape="295.20,510.40 294.85,507.95 293.80,506.20 292.05,505.15 289.60,504.80"/>
    </edge>
    <edge id=":B2_1" function="internal">
        <lane id=":B2_1_0" index="0" speed="11.11" length="20.80" shape="295.20,510.40 295.20,489.60"/>
        <lane id=":B2_1_1" index="1" speed="11.11" length="20.80" shape="298.40,510.40 298.40,489.60"/>
    </edge>
    <edge id=":B2_3" function="internal">
        <lane id=":B2_3_0" index="0" speed="9.26" length="19.35" shape="298.40,510.40 299.15,505.15 301.40,501.40 305.15,499.15 310.40,498.40"/>
    </edge>
    <edge id=":B2_4" function="internal">
        <lane id=":B2_4_0" index="0" speed="6.51" length="9.03" shape="310.40,504.80 307.95,505.15 306.20,506.20 305.15,507.95 304.80,510.40"/>
    </edge>
    <edge id=":B2_5" function="internal">
        <lane id=":B2_5_0" index="0" speed="19.44" length="20.80" shape="310.40,504.80 289.60,504.80"/>
        <lane id=":B2_5_1" index="1" speed="19.44" length="20.80" shape="310.40,501.60 289.60,501.60"/>
    </edge>
    <edge id=":B2_7" function="internal">
        <lane id=":B2_7_0" index="0" speed="9.26" length="19.35" shape="310.40,501.60 305.15,500.85 301.40,498.60 299.15,494.85 298.40,489.60"/>
    </edge>
    <edge id=":B2_8" function="internal">
        <lane id=":B2_8_0" index="0" speed="6.51" length="9.03" shape="304.80,489.60 305.15,492.05 306.20,493.80 307.95,494.85 310.40,495.20"/>
    </edge>
    <edge id=":B2_9" function="internal">
        <lane id=":B2_9_0" index="0" speed="11.11" length="20.80" shape="304.80,489.60 304.80,510.40"/>
        <lane id=":B2_9_1" index="1" speed="11.11" length="20.80" shape="301.60,489.60 301.60,510.40"/>
    </edge>
    <edge id=":B2_11" function="internal">
        <lane id=":B2_11_0" index="0" speed="9.26" length="19.35" shape="301.60,489.60 300.85,494.85 298.60,498.60 294.85,500.85 289.60,501.60"/>
    </edge>
    <edge id=":B2_12" function="internal">
        <lane id=":B2_12_0" index="0" speed="6.51" length="9.03" shape="289.60,495.20 292.05,494.85 293.80,493.80 294.85,492.05 295.20,489.60"/>
    </edge>
    <edge id=":B2_13" function="internal">
        <lane id=":B2_13_0" index="0" speed="19.44" length="20.80" shape="289.60,495.20 310.40,495.20"/>
        <lane id=":B2_13_1" index="1" speed="19.44" length="20.80" shape="289.60,498.40 310.40,498.40"/>
    </edge>
    <edge id=":B2_15" function="internal">
        <lane id=":B2_15_0" index="0" speed="9.26" length="19.35" shape="289.60,498.40 294.85,499.15 298.60,501.40 300.85,505.15 301.60,510.40"/>
    </edge>
    <edge id=":B3_0" function="internal">
        <lane id=":B3_0_0" index="0" speed="6.51" length="9.03" shape="295.20,710.40 294.85,707.95 293.80,706.20 292.05,705.15 289.60,704.80"/>
    </edge>
    <edge id=":B3_1" function="internal">
        <lane id=":B3_1_0" index="0" speed="11.11" length="20.80" shape="295.20,710.40 295.20,689.60"/>
        <lane id=":B3_1_1" index="1" speed="11.11" length="20.80" shape="298.40,710.40 298.40,689.60"/>
    </edge>
    <edge id=":B3_3" function="internal">
        <lane id=":B3_3_0" index="0" speed="9.26" length="19.35" shape="298.40,710.40 299.15,705.15 301.40,701.40 305.15,699.15 310.40,698.40"/>
    </edge>
    <edge id=":B3_4" function="internal">
        <lane id=":B3_4_0" index="0" speed="6.51" length="9.03" shape="310.40,704.80 307.95,705.15 306.20,706.20 305.15,707.95 304.80,710.40"/>
    </edge>
    <edge id=":B3_5" function="internal">
        <lane id=":B3_5_0" index="0" speed="11.11" length="20.80" shape="310.40,704.80 289.60,704.80"/>
        <lane id=":B3_5_1" index="1" speed="11.11" length="20.80" shape="310.40,701.60 289.60,701.60"/>
    </edge>
    <edge id=":B3_7" function="internal">
        <lane id=":B3_7_0" index="0" speed="9.26" length="19.35" shape="310.40,701.60 305.15,700.85 301.40,698.60 299.15,694.85 298.40,689.60"/>
    </edge>
    <edge id=":B3_8" function="internal">
        <lane id=":B3_8_0" index="0" speed="6.51" length="9.03" shape="304.80,689.60 305.15,692.05 306.20,693.80 307.95,694.85 310.40,695.20"/>
    </edge>
    <edge id=":B3_9" function="internal">
        <lane id=":B3_9_0" index="0" speed="11.11" length="20.80" shape="304.80,689.60 304.80,710.40"/>
        <lane id=":B3_9_1" index="1" speed="11.11" length="20.80" shape="301.60,689.60 301.60,710.40"/>
    </edge>
    <edge id=":B3_11" function="internal">
        <lane id=":B3_11_0" index="0" speed="9.26" length="19.35" shape="301.60,689.60 300.85,694.85 298.60,698.60 294.85,700.85 289.60,701.60"/>
    </edge>
    <edge id=":B3_12" function="internal">
        <lane id=":B3_12_0" index="0" speed="6.51" length="9.03" shape="289.60,695.20 292.05,694.85 293.80,693.80 294.85,692.05 295.20,689.60"/>
    </edge>
    <edge id=":B3_13" function="internal">
        <lane id=":B3_13_0" index="0" speed="11.11" length="20.80" shape="289.60,695.20 310.40,695.20"/>
        <lane id=":B3_13_1" index="1" speed="11.11" length="20.80" shape="289.60,698.40 310.40,698.40"/>
    </edge>
    <edge id=":B3_15" function="internal">
        <lane id=":B3_15_0" index="0" speed="9.26" length="19.35" shape="289.60,698.40 294.85,699.15 298.60,701.40 300.85,705.15 301.60,710.40"/>
    </edge>
    <edge id=":B4_0" function="internal">
        <lane id=":B4_0_0" index="0" speed="6.51" length="9.03" shape="295.20,910.40 294.85,907.95 293.80,906.20 292.05,905.15 289.60,904.80"/>
    </edge>
    <edge id=":B4_1" function="internal">
        <lane id=":B4_1_0" index="0" speed="11.11" length="20.80" shape="295.20,910.40 295.20,889.60"/>
        <lane id=":B4_1_1" index="1" speed="11.11" length="20.80" shape="298.40,910.40 298.40,889.60"/>
    </edge>
    <edge id=":B4_3" function="internal">
        <lane id=":B4_3_0" index="0" speed="9.26" length="19.35" shape="298.40,910.40 299.15,905.15 301.40,901.40 305.15,899.15 310.40,898.40"/>
    </edge>
    <edge id=":B4_4" function="internal">
        <lane id=":B4_4_0" index="0" speed="6.51" length="9.03" shape="310.40,904.80 307.95,905.15 306.20,906.20 305.15,907.95 304.80,910.40"/>
    </edge>
    <edge id=":B4_5" function="internal">
        <lane id=":B4_5_0" index="0" speed="11.11" length="20.80" shape="310.40,904.80 289.60,904.80"/>
        <lane id=":B4_5_1" index="1" speed="11.11" length="20.80" shape="310.40,901.60 289.60,901.60"/>
    </edge>
    <edge id=":B4_7" function="internal">
        <lane id=":B4_7_0" index="0" speed="9.26" length="19.35" shape="310.40,901.60 305.15,900.85 301.40,898.60 299.15,894.85 298.40,889.60"/>
    </edge>
    <edge id=":B4_8" function="internal">
        <lane id=":B4_8_0" index="0" speed="6.51" length="9.03" shape="304.80,889.60 305.15,892.05 306.20,893.80 307.95,894.85 310.40,895.20"/>
    </edge>
    <edge id=":B4_9" function="internal">
        <lane id=":B4_9_0" index="0" speed="11.11" length="20.80" shape="304.80,889.60 304.80,910.40"/>
        <lane id=":B4_9_1" index="1" speed="11.11" length="20.80" shape="301.60,889.60 301.60,910.40"/>
    </edge>
    <edge id=":B4_11" function="internal">
        <lane id=":B4_11_0" index="0" speed="9.26" length="19.35" shape="301.60,889.60 300.85,894.85 298.60,898.60 294.85,900.85 289.60,901.60"/>
    </edge>
    <edge id=":B4_12" function="internal">
        <lane id=":B4_12_0" index="0" speed="6.51" length="9.03" shape="289.60,895.20 292.05,894.85 293.80,893.80 294.85,892.05 295.20,889.60"/>
    </edge>
    <edge id=":B4_13" function="internal">
        <lane id=":B4_13_0" index="0" speed="11.11" length="20.80" shape="289.60,895.20 310.40,895.20"/>
        <lane id=":B4_13_1" index="1" speed="11.11" length="20.80" shape="289.60,898.40 310.40,898.40"/>
    </edge>
    <edge id=":B4_15" function="internal">
        <lane id=":B4_15_0" index="0" speed="9.26" length="19.35" shape="289.60,898.40 294.85,899.15 298.60,901.40 300.85,905.15 301.60,910.40"/>
    </edge>
    <edge id=":C0_0" function="internal">
        <lane id=":C0_0_0" index="0" speed="6.51" length="9.03" shape="495.20,110.40 494.85,107.95 493.80,106.20 492.05,105.15 489.60,104.80"/>
    </edge>
    <edge id=":C0_1" function="internal">
        <lane id=":C0_1_0" index="0" speed="11.11" length="20.80" shape="495.20,110.40 495.20,89.60"/>
        <lane id=":C0_1_1" index="1" speed="11.11" length="20.80" shape="498.40,110.40 498.40,89.60"/>
    </edge>
    <edge id=":C0_3" function="internal">
        <lane id=":C0_3_0" index="0" speed="9.26" length="19.35" shape="498.40,110.40 499.15,105.15 501.40,101.40 505.15,99.15 510.40,98.40"/>
    </edge>
    <edge id=":C0_4" function="internal">
        <lane id=":C0_4_0" index="0" speed="6.51" length="9.03" shape="510.40,104.80 507.95,105.15 506.20,106.20 505.15,107.95 504.80,110.40"/>
    </edge>
    <edge id=":C0_5" function="internal">
        <lane id=":C0_5_0" index="0" speed="11.11" length="20.80" shape="510.40,104.80 489.60,104.80"/>
        <lane id=":C0_5_1" index="1" speed="11.11" length="20.80" shape="510.40,101.60 489.60,101.60"/>
    </edge>
    <edge id=":C0_7" function="internal">
        <lane id=":C0_7_0" index="0" speed="9.26" length="19.35" shape="510.40,101.60 505.15,100.85 501.40,98.60 499.15,94.85 498.40,89.60"/>
    </edge>
    <edge id=":C0_8" function="internal">
        <lane id=":C0_8_0" index="0" speed="6.51" length="9.03" shape="504.80,89.60 505.15,92.05 506.20,93.80 507.95,94.85 510.40,95.20"/>
    </edge>
    <edge id=":C0_9" function="internal">
        <lane id=":C0_9_0" index="0" speed="11.11" length="20.80" shape="504.80,89.60 504.80,110.40"/>
        <lane id=":C0_9_1" index="1" speed="11.11" length="20.80" shape="501.60,89.60 501.60,110.40"/>
    </edge>
    <edge id=":C0_11" function="internal">
        <lane id=":C0_11_0" index="0" speed="9.26" length="19.35" shape="501.60,89.60 500.85,94.85 498.60,98.60 494.85,100.85 489.60,101.60"/>
    </edge>
    <edge id=":C0_12" function="internal">
        <lane id=":C0_12_0" index="0" speed="6.51" length="9.03" shape="489.60,95.20 492.05,94.85 493.80,93.80 494.85,92.05 495.20,89.60"/>
    </edge>
    <edge id=":C0_13" function="internal">
        <lane id=":C0_13_0" index="0" speed="11.11" length="20.80" shape="489.60,95.20 510.40,95.20"/>