<?xml version="1.0" encoding="UTF-8"?>

<!-- generated on 2022-03-02 18:17:26 by Eclipse SUMO netedit Version 1.11.0
-->

<routes xmlns:xsi="http://www.w3.org/2001/XMLSchema-instance" xsi:noNamespaceSchemaLocation="http://sumo.dlr.de/xsd/routes_file.xsd">
    <flow id="flow_0" begin="0.00" from="bottom0A0" to="E4top4" end="3600.00" number="1800"/>
</routes>
