<?xml version="1.0" encoding="UTF-8"?>

<!-- generated on 2022-03-02 18:33:56 by Eclipse SUMO duarouter Version 1.11.0
<configuration xmlns:xsi="http://www.w3.org/2001/XMLSchema-instance" xsi:noNamespaceSchemaLocation="http://sumo.dlr.de/xsd/duarouterConfiguration.xsd">

    <input>
        <net-file value="99/../../5x5.net.xml"/>
        <route-files value="99/../98/5x5_outspread_098.rou.alt.xml"/>
        <weight-files value="99/../98/dump_098_900.xml"/>
    </input>

    <output>
        <output-file value="99/5x5_outspread_099.rou.xml"/>
        <alternatives-output value="99/5x5_outspread_099.rou.alt.xml"/>
        <exit-times value="false"/>
    </output>

    <processing>
        <max-alternatives value="5"/>
        <with-taz value="false"/>
        <weights.expand value="true"/>
        <routing-algorithm value="dijkstra"/>
        <gawron.beta value="0.9"/>
        <gawron.a value="0.5"/>
        <keep-all-routes value="false"/>
        <logit.beta value="0.15"/>
        <logit.gamma value="1"/>
    </processing>

    <time>
        <begin value="0"/>
    </time>

    <report>
        <verbose value="false"/>
        <no-warnings value="false"/>
        <ignore-errors value="false"/>
        <no-step-log value="true"/>
    </report>

    <random_number>
        <random value="false"/>
    </random_number>

</configuration>
-->

<routes xmlns:xsi="http://www.w3.org/2001/XMLSchema-instance" xsi:noNamespaceSchemaLocation="http://sumo.dlr.de/xsd/routes_file.xsd">
    <vehicle id="bottom0_top4.0" depart="0.00" color="red">
        <route edges="bottom0A0 A0B0 B0C0 C0C1 C1D1 D1D2 D2D3 D3D4 D4E4 E4top4"/>
    </vehicle>
    <vehicle id="bottom1_top3.0" depart="0.00" color="cyan">
        <route edges="bottom1B0 B0B1 B1B2 B2C2 C2C3 C3C4 C4D4 D4top3"/>
    </vehicle>
    <vehicle id="bottom3_top1.0" depart="0.00" color="magenta">
        <route edges="bottom3D0 D0D1 D1D2 D2C2 C2B2 B2B3 B3B4 B4top1"/>
    </vehicle>
    <vehicle id="bottom4_top0.0" depart="0.00" color="blue">
        <route edges="bottom4E0 E0D0 D0C0 C0C1 C1C2 C2B2 B2A2 A2A3 A3A4 A4top0"/>
    </vehicle>
    <vehicle id="left0_right4.0" depart="0.00" color="green">
        <route edges="left0A0 A0A1 A1A2 A2A3 A3B3 B3C3 C3C4 C4D4 D4E4 E4right4"/>
    </vehicle>
    <vehicle id="left1_right3.0" depart="0.00" color="white">
        <route edges="left1A1 A1A2 A2B2 B2C2 C2D2 D2E2 E2E3 E3right3"/>
    </vehicle>
    <vehicle id="left3_right1.0" depart="0.00" color="255,150,0">
        <route edges="left3A3 A3A2 A2A1 A1B1 B1C1 C1D1 D1E1 E1right1"/>
    </vehicle>
    <vehicle id="left4_right0.0" depart="0.00" color="yellow">
        <route edges="left4A4 A4B4 B4B3 B3B2 B2B1 B1B0 B0C0 C0D0 D0E0 E0right0"/>
    </vehicle>
    <vehicle id="right0_left4.0" depart="0.00" color="150,150,0">
        <route edges="right0E0 E0E1 E1E2 E2E3 E3E4 E4D4 D4C4 C4B4 B4A4 A4left4"/>
    </vehicle>
    <vehicle id="right1_left3.0" depart="0.00" color="150,100,0">
        <route edges="right1E1 E1D1 D1C1 C1B1 B1B2 B2B3 B3A3 A3left3"/>
    </vehicle>
    <vehicle id="right3_left1.0" depart="0.00" color="150,150,150">
        <route edges="right3E3 E3E2 E2E1 E1D1 D1C1 C1B1 B1A1 A1left1"/>
    </vehicle>
    <vehicle id="right4_left0.0" depart="0.00" color="0,150,0">
        <route edges="right4E4 E4D4 D4C4 C4B4 B4A4 A4A3 A3A2 A2A1 A1A0 A0left0"/>
    </vehicle>
    <vehicle id="top0_bottom4.0" depart="0.00" color="0,0,150">
        <route edges="top0A4 A4B4 B4C4 C4D4 D4D3 D3E3 E3E2 E2E1 E1E0 E0bottom4"/>
    </vehicle>
    <vehicle id="top1_bottom3.0" depart="0.00" color="150,0,150">
        <route edges="top1B4 B4C4 C4C3 C3D3 D3D2 D2D1 D1D0 D0bottom3"/>
    </vehicle>
    <vehicle id="top3_bottom1.0" depart="0.00" color="0,150,150">
        <route edges="top3D4 D4D3 D3C3 C3B3 B3B2 B2B1 B1B0 B0bottom1"/>
    </vehicle>
    <vehicle id="top4_bottom0.0" depart="0.00" color="150,0,0">
        <route edges="top4E4 E4E3 E3E2 E2D2 D2D1 D1D0 D0C0 C0B0 B0A0 A0bottom0"/>
    </vehicle>
    <vehicle id="bottom0_top4.1" depart="1.64" color="red">
        <route edges="bottom0A0 A0B0 B0C0 C0D0 D0E0 E0E1 E1E2 E2E3 E3E4 E4top4"/>
    </vehicle>
    <vehicle id="bottom4_top0.1" depart="1.64" color="blue">
        <route edges="bottom4E0 E0E1 E1D1 D1D2 D2D3 D3C3 C3B3 B3A3 A3A4 A4top0"/>
    </vehicle>
    <vehicle id="left0_right4.1" depart="1.64" color="green">
        <route edges="left0A0 A0B0 B0C0 C0D0 D0D1 D1D2 D2D3 D3D4 D4E4 E4right4"/>
    </vehicle>
    <vehicle id="left4_right0.1" depart="1.64" color="yellow">
        <route edges="left4A4 A4A3 A3B3 B3C3 C3D3 D3D2 D2D1 D1E1 E1E0 E0right0"/>
    </vehicle>
    <vehicle id="right0_left4.1" depart="1.64" color="150,150,0">
        <route edges="right0E0 E0D0 D0D1 D1D2 D2C2 C2B2 B2B3 B3B4 B4A4 A4left4"/>
    </vehicle>
    <vehicle id="right4_left0.1" depart="1.64" color="0,150,0">
        <route edges="right4E4 E4D4 D4D3 D3C3 C3B3 B3A3 A3A2 A2A1 A1A0 A0left0"/>
    </vehicle>
    <vehicle id="top0_bottom4.1" depart="1.64" color="0,0,150">
        <route edges="top0A4 A4A3 A3A2 A2A1 A1A0 A0B0 B0C0 C0D0 D0E0 E0bottom4"/>
    </vehicle>
    <vehicle id="top4_bottom0.1" depart="1.64" color="150,0,0">
        <route edges="top4E4 E4D4 D4D3 D3C3 C3B3 B3A3 A3A2 A2A1 A1A0 A0bottom0"/>
    </vehicle>
    <vehicle id="bottom1_top3.1" depart="1.89" color="cyan">
        <route edges="bottom1B0 B0C0 C0C1 C1C2 C2C3 C3C4 C4D4 D4top3"/>
    </vehicle>
    <vehicle id="bottom3_top1.1" depart="1.89" color="magenta">
        <route edges="bottom3D0 D0D1 D1C1 C1C2 C2C3 C3C4 C4B4 B4top1"/>
    </vehicle>
    <vehicle id="left1_right3.1" depart="1.89" color="white">
        <route edges="left1A1 A1B1 B1C1 C1D1 D1D2 D2D3 D3E3 E3right3"/>
    </vehicle>
    <vehicle id="left3_right1.1" depart="1.89" color="255,150,0">
        <route edges="left3A3 A3B3 B3B2 B2B1 B1C1 C1D1 D1E1 E1right1"/>
    </vehicle>
    <vehicle id="right1_left3.1" depart="1.89" color="150,100,0">
        <route edges="right1E1 E1D1 D1C1 C1C2 C2B2 B2A2 A2A3 A3left3"/>
    </vehicle>
    <vehicle id="right3_left1.1" depart="1.89" color="150,150,150">
        <route edges="right3E3 E3E2 E2E1 E1D1 D1C1 C1B1 B1A1 A1left1"/>
    </vehicle>
    <vehicle id="top1_bottom3.1" depart="1.89" color="150,0,150">
        <route edges="top1B4 B4B3 B3B2 B2B1 B1B0 B0C0 C0D0 D0bottom3"/>
    </vehicle>
    <vehicle id="top3_bottom1.1" depart="1.89" color="0,150,150">
        <route edges="top3D4 D4D3 D3D2 D2C2 C2C1 C1B1 B1B0 B0bottom1"/>
    </vehicle>
    <vehicle id="bottom0_top4.2" depart="3.28" color="red">
        <route edges="bottom0A0 A0A1 A1A2 A2A3 A3B3 B3C3 C3C4 C4D4 D4E4 E4top4"/>
    </vehicle>
    <vehicle id="bottom4_top0.2" depart="3.28" color="blue">
        <route edges="bottom4E0 E0D0 D0D1 D1D2 D2C2 C2B2 B2B3 B3B4 B4A4 A4top0"/>
    </vehicle>
    <vehicle id="left0_right4.2" depart="3.28" color="green">
        <route edges="left0A0 A0B0 B0B1 B1B2 B2C2 C2C3 C3C4 C4D4 D4E4 E4right4"/>
    </vehicle>
    <vehicle id="left4_right0.2" depart="3.28" color="yellow">
        <route edges="left4A4 A4B4 B4B3 B3B2 B2B1 B1B0 B0C0 C0D0 D0E0 E0right0"/>
    </vehicle>
    <vehicle id="right0_left4.2" depart="3.28" color="150,150,0">
        <route edges="right0E0 E0D0 D0C0 C0C1 C1C2 C2B2 B2A2 A2A3 A3A4 A4left4"/>
    </vehicle>
    <vehicle id="right4_left0.2" depart="3.28" color="0,150,0">
        <route edges="right4E4 E4E3 E3E2 E2D2 D2D1 D1D0 D0C0 C0B0 B0A0 A0left0"/>
    </vehicle>
    <vehicle id="top0_bottom4.2" depart="3.28" color="0,0,150">
        <route edges="top0A4 A4B4 B4B3 B3B2 B2B1 B1B0 B0C0 C0D0 D0E0 E0bottom4"/>
    </vehicle>
    <vehicle id="top4_bottom0.2" depart="3.28" color="150,0,0">
        <route edges="top4E4 E4E3 E3E2 E2D2 D2C2 C2C1 C1B1 B1A1 A1A0 A0bottom0"/>
    </vehicle>
    <vehicle id="bottom1_top3.2" depart="3.77" color="cyan">
        <route edges="bottom1B0 B0C0 C0C1 C1C2 C2D2 D2D3 D3D4 D4top3"/>
    </vehicle>
    <vehicle id="bottom3_top1.2" depart="3.77" color="magenta">
        <route edges="bottom3D0 D0C0 C0C1 C1C2 C2C3 C3C4 C4B4 B4top1"/>
    </vehicle>
    <vehicle id="left1_right3.2" depart="3.77" color="white">
        <route edges="left1A1 A1A2 A2B2 B2C2 C2D2 D2D3 D3E3 E3right3"/>
    </vehicle>
    <vehicle id="left3_right1.2" depart="3.77" color="255,150,0">
        <route edges="left3A3 A3A2 A2B2 B2C2 C2D2 D2E2 E2E1 E1right1"/>
    </vehicle>
    <vehicle id="right1_left3.2" depart="3.77" color="150,100,0">
        <route edges="right1E1 E1E2 E2D2 D2C2 C2B2 B2A2 A2A3 A3left3"/>
    </vehicle>
    <vehicle id="right3_left1.2" depart="3.77" color="150,150,150">
        <route edges="right3E3 E3E2 E2D2 D2C2 C2C1 C1B1 B1A1 A1left1"/>
    </vehicle>
    <vehicle id="top1_bottom3.2" depart="3.77" color="150,0,150">
        <route edges="top1B4 B4B3 B3B2 B2B1 B1B0 B0C0 C0D0 D0bottom3"/>
    </vehicle>
    <vehicle id="top3_bottom1.2" depart="3.77" color="0,150,150">
        <route edges="top3D4 D4C4 C4C3 C3C2 C2B2 B2B1 B1B0 B0bottom1"/>
    </vehicle>
    <vehicle id="bottom0_top4.3" depart="4.92" color="red">
        <route edges="bottom0A0 A0B0 B0C0 C0D0 D0E0 E0E1 E1E2 E2E3 E3E4 E4top4"/>
    </vehicle>
    <vehicle id="bottom4_top0.3" depart="4.92" color="blue">
        <route edges="bottom4E0 E0D0 D0C0 C0C1 C1C2 C2B2 B2A2 A2A3 A3A4 A4top0"/>
    </vehicle>
    <vehicle id="left0_right4.3" depart="4.92" color="green">
        <route edges="left0A0 A0A1 A1A2 A2A3 A3B3 B3C3 C3C4 C4D4 D4E4 E4right4"/>
    </vehicle>
    <vehicle id="left4_right0.3" depart="4.92" color="yellow">
        <route edges="left4A4 A4B4 B4C4 C4D4 D4D3 D3E3 E3E2 E2E1 E1E0 E0right0"/>
    </vehicle>
    <vehicle id="right0_left4.3" depart="4.92" color="150,150,0">
        <route edges="right0E0 E0E1 E1E2 E2E3 E3E4 E4D4 D4C4 C4B4 B4A4 A4left4"/>
    </vehicle>
    <vehicle id="right4_left0.3" depart="4.92" color="0,150,0">
        <route edges="right4E4 E4D4 D4C4 C4C3 C3C2 C2B2 B2A2 A2A1 A1A0 A0left0"/>
    </vehicle>
    <vehicle id="top0_bottom4.3" depart="4.92" color="0,0,150">
        <route edges="top0A4 A4B4 B4C4 C4C3 C3D3 D3E3 E3E2 E2E1 E1E0 E0bottom4"/>
    </vehicle>
    <vehicle id="top4_bottom0.3" depart="4.92" color="150,0,0">
        <route edges="top4E4 E4E3 E3E2 E2D2 D2D1 D1D0 D0C0 C0B0 B0A0 A0bottom0"/>
    </vehicle>
    <vehicle id="bottom1_top3.3" depart="5.66" color="cyan">
        <route edges="bottom1B0 B0C0 C0C1 C1C2 C2C3 C3C4 C4D4 D4top3"/>
    </vehicle>
    <vehicle id="bottom3_top1.3" depart="5.66" color="magenta">
        <route edges="bottom3D0 D0C0 C0B0 B0B1 B1B2 B2B3 B3B4 B4top1"/>
    </vehicle>
    <vehicle id="left1_right3.3" depart="5.66" color="white">
        <route edges="left1A1 A1A2 A2B2 B2C2 C2D2 D2E2 E2E3 E3right3"/>
    </vehicle>
    <vehicle id="left3_right1.3" depart="5.66" color="255,150,0">
        <route edges="left3A3 A3A2 A2B2 B2B1 B1C1 C1D1 D1E1 E1right1"/>
    </vehicle>
    <vehicle id="right1_left3.3" depart="5.66" color="150,100,0">
        <route edges="right1E1 E1E2 E2D2 D2C2 C2B2 B2A2 A2A3 A3left3"/>
    </vehicle>
    <vehicle id="right3_left1.3" depart="5.66" color="150,150,150">
        <route edges="right3E3 E3E2 E2D2 D2C2 C2C1 C1B1 B1A1 A1left1"/>
    </vehicle>
    <vehicle id="top1_bottom3.3" depart="5.66" color="150,0,150">
        <route edges="top1B4 B4B3 B3B2 B2B1 B1B0 B0C0 C0D0 D0bottom3"/>
    </vehicle>
    <vehicle id="top3_bottom1.3" depart="5.66" color="0,150,150">
        <route edges="top3D4 D4C4 C4C3 C3C2 C2C1 C1C0 C0B0 B0bottom1"/>
    </vehicle>
    <vehicle id="bottom0_top4.4" depart="6.56" color="red">
        <route edges="bottom0A0 A0B0 B0C0 C0D0 D0D1 D1D2 D2D3 D3D4 D4E4 E4top4"/>
    </vehicle>
    <vehicle id="bottom4_top0.4" depart="6.56" color="blue">
        <route edges="bottom4E0 E0D0 D0C0 C0C1 C1C2 C2B2 B2A2 A2A3 A3A4 A4top0"/>
    </vehicle>
    <vehicle id="left0_right4.4" depart="6.56" color="green">
        <route edges="left0A0 A0B0 B0B1 B1B2 B2C2 C2C3 C3C4 C4D4 D4E4 E4right4"/>
    </vehicle>
    <vehicle id="left4_right0.4" depart="6.56" color="yellow">
        <route edges="left4A4 A4B4 B4B3 B3B2 B2B1 B1B0 B0C0 C0D0 D0E0 E0right0"/>
    </vehicle>
    <vehicle id="right0_left4.4" depart="6.56" color="150,150,0">
        <route edges="right0E0 E0D0 D0D1 D1D2 D2C2 C2B2 B2B3 B3B4 B4A4 A4left4"/>
    </vehicle>
    <vehicle id="right4_left0.4" depart="6.56" color="0,150,0">
        <route edges="right4E4 E4D4 D4C4 C4C3 C3C2 C2B2 B2A2 A2A1 A1A0 A0left0"/>
    </vehicle>
    <vehicle id="top0_bottom4.4" depart="6.56" color="0,0,150">
        <route edges="top0A4 A4A3 A3A2 A2A1 A1A0 A0B0 B0C0 C0D0 D0E0 E0bottom4"/>
    </vehicle>
    <vehicle id="top4_bottom0.4" depart="6.56" color="150,0,0">
        <route edges="top4E4 E4E3 E3E2 E2D2 D2D1 D1D0 D0C0 C0B0 B0A0 A0bottom0"/>
    </vehicle>
    <vehicle id="bottom1_top3.4" depart="7.54" color="cyan">
        <route edges="bottom1B0 B0C0 C0D0 D0D1 D1D2 D2D3 D3D4 D4top3"/>
    </vehicle>
    <vehicle id="bottom3_top1.4" depart="7.54" color="magenta">
        <route edges="bottom3D0 D0C0 C0B0 B0B1 B1B2 B2B3 B3B4 B4top1"/>
    </vehicle>
    <vehicle id="left1_right3.4" depart="7.54" color="white">
        <route edges="left1A1 A1A2 A2B2 B2C2 C2D2 D2E2 E2E3 E3right3"/>
    </vehicle>
    <vehicle id="left3_right1.4" depart="7.54" color="255,150,0">
        <route edges="left3A3 A3A2 A2B2 B2C2 C2D2 D2E2 E2E1 E1right1"/>
    </vehicle>
    <vehicle id="right1_left3.4" depart="7.54" color="150,100,0">
        <route edges="right1E1 E1E2 E2D2 D2C2 C2B2 B2A2 A2A3 A3left3"/>
    </vehicle>
    <vehicle id="right3_left1.4" depart="7.54" color="150,150,150">
        <route edges="right3E3 E3E2 E2E1 E1D1 D1C1 C1B1 B1A1 A1left1"/>
    </vehicle>
    <vehicle id="top1_bottom3.4" depart="7.54" color="150,0,150">
        <route edges="top1B4 B4C4 C4C3 C3C2 C2C1 C1C0 C0D0 D0bottom3"/>
    </vehicle>
    <vehicle id="top3_bottom1.4" depart="7.54" color="0,150,150">
        <route edges="top3D4 D4D3 D3D2 D2C2 C2C1 C1B1 B1B0 B0bottom1"/>
    </vehicle>
    <vehicle id="bottom0_top4.5" depart="8.20" color="red">
        <route edges="bottom0A0 A0B0 B0C0 C0D0 D0D1 D1D2 D2D3 D3D4 D4E4 E4top4"/>
    </vehicle>
    <vehicle id="bottom4_top0.5" depart="8.20" color="blue">
        <route edges="bottom4E0 E0D0 D0D1 D1D2 D2C2 C2B2 B2B3 B3B4 B4A4 A4top0"/>
    </vehicle>
    <vehicle id="left0_right4.5" depart="8.20" color="green">
        <route edges="left0A0 A0A1 A1A2 A2A3 A3B3 B3C3 C3C4 C4D4 D4E4 E4right4"/>
    </vehicle>
    <vehicle id="left4_right0.5" depart="8.20" color="yellow">
        <route edges="left4A4 A4A3 A3A2 A2A1 A1A0 A0B0 B0C0 C0D0 D0E0 E0right0"/>
    </vehicle>
    <vehicle id="right0_left4.5" depart="8.20" color="150,150,0">
        <route edges="right0E0 E0E1 E1E2 E2E3 E3E4 E4D4 D4C4 C4B4 B4A4 A4left4"/>
    </vehicle>
    <vehicle id="right4_left0.5" depart="8.20" color="0,150,0">
        <route edges="right4E4 E4E3 E3E2 E2D2 D2D1 D1D0 D0C0 C0B0 B0A0 A0left0"/>
    </vehicle>
    <vehicle id="top0_bottom4.5" depart="8.20" color="0,0,150">
        <route edges="top0A4 A4B4 B4C4 C4D4 D4D3 D3E3 E3E2 E2E1 E1E0 E0bottom4"/>
    </vehicle>
    <vehicle id="top4_bottom0.5" depart="8.20" color="150,0,0">
        <route edges="top4E4 E4D4 D4C4 C4C3 C3C2 C2B2 B2A2 A2A1 A1A0 A0bottom0"/>
    </vehicle>
    <vehicle id="bottom1_top3.5" depart="9.43" color="cyan">
        <route edges="bottom1B0 B0B1 B1B2 B2B3 B3B4 B4C4 C4D4 D4top3"/>
    </vehicle>
    <vehicle id="bottom3_top1.5" depart="9.43" color="magenta">
        <route edges="bottom3D0 D0C0 C0C1 C1C2 C2B2 B2B3 B3B4 B4top1"/>
    </vehicle>
    <vehicle id="left1_right3.5" depart="9.43" color="white">
        <route edges="left1A1 A1B1 B1C1 C1D1 D1D2 D2E2 E2E3 E3right3"/>
    </vehicle>
    <vehicle id="left3_right1.5" depart="9.43" color="255,150,0">
        <route edges="left3A3 A3A2 A2B2 B2B1 B1C1 C1D1 D1E1 E1right1"/>
    </vehicle>
    <vehicle id="right1_left3.5" depart="9.43" color="150,100,0">
        <route edges="right1E1 E1E2 E2D2 D2C2 C2B2 B2A2 A2A3 A3left3"/>
    </vehicle>
    <vehicle id="right3_left1.5" depart="9.43" color="150,150,150">
        <route edges="right3E3 E3D3 D3D2 D2C2 C2B2 B2A2 A2A1 A1left1"/>
    </vehicle>
    <vehicle id="top1_bottom3.5" depart="9.43" color="150,0,150">
        <route edges="top1B4 B4B3 B3B2 B2B1 B1B0 B0C0 C0D0 D0bottom3"/>
    </vehicle>
    <vehicle id="top3_bottom1.5" depart="9.43" color="0,150,150">
        <route edges="top3D4 D4D3 D3D2 D2D1 D1D0 D0C0 C0B0 B0bottom1"/>
    </vehicle>
    <vehicle id="bottom0_top4.6" depart="9.83" color="red">
        <route edges="bottom0A0 A0A1 A1A2 A2A3 A3B3 B3C3 C3C4 C4D4 D4E4 E4top4"/>
    </vehicle>
    <vehicle id="bottom4_top0.6" depart="9.83" color="blue">
        <route edges="bottom4E0 E0E1 E1D1 D1D2 D2D3 D3C3 C3B3 B3A3 A3A4 A4top0"/>
    </vehicle>
    <vehicle id="left0_right4.6" depart="9.83" color="green">
        <route edges="left0A0 A0A1 A1A2 A2A3 A3B3 B3C3 C3C4 C4D4 D4E4 E4right4"/>
    </vehicle>
    <vehicle id="left4_right0.6" depart="9.83" color="yellow">
        <route edges="left4A4 A4A3 A3A2 A2A1 A1A0 A0B0 B0C0 C0D0 D0E0 E0right0"/>
    </vehicle>
    <vehicle id="right0_left4.6" depart="9.83" color="150,150,0">
        <route edges="right0E0 E0E1 E1E2 E2E3 E3E4 E4D4 D4C4 C4B4 B4A4 A4left4"/>
    </vehicle>
    <vehicle id="right4_left0.6" depart="9.83" color="0,150,0">
        <route edges="right4E4 E4D4 D4D3 D3C3 C3B3 B3A3 A3A2 A2A1 A1A0 A0left0"/>
    </vehicle>
    <vehicle id="top0_bottom4.6" depart="9.83" color="0,0,150">
        <route edges="top0A4 A4B4 B4C4 C4C3 C3D3 D3E3 E3E2 E2E1 E1E0 E0bottom4"/>
    </vehicle>
    <vehicle id="top4_bottom0.6" depart="9.83" color="150,0,0">
        <route edges="top4E4 E4D4 D4D3 D3C3 C3B3 B3A3 A3A2 A2A1 A1A0 A0bottom0"/>
    </vehicle>
    <vehicle id="bottom1_top3.6" depart="11.32" color="cyan">
        <route edges="bottom1B0 B0C0 C0C1 C1C2 C2C3 C3C4 C4D4 D4top3"/>
    </vehicle>
    <vehicle id="bottom3_top1.6" depart="11.32" color="magenta">
        <route edges="bottom3D0 D0C0 C0B0 B0B1 B1B2 B2B3 B3B4 B4top1"/>
    </vehicle>
    <vehicle id="left1_right3.6" depart="11.32" color="white">
        <route edges="left1A1 A1B1 B1C1 C1D1 D1D2 D2E2 E2E3 E3right3"/>
    </vehicle>
    <vehicle id="left3_right1.6" depart="11.32" color="255,150,0">
        <route edges="left3A3 A3B3 B3B2 B2B1 B1C1 C1D1 D1E1 E1right1"/>
    </vehicle>
    <vehicle id="right1_left3.6" depart="11.32" color="150,100,0">
        <route edges="right1E1 E1D1 D1C1 C1B1 B1B2 B2B3 B3A3 A3left3"/>
    </vehicle>
    <vehicle id="right3_left1.6" depart="11.32" color="150,150,150">
        <route edges="right3E3 E3E2 E2E1 E1D1 D1C1 C1B1 B1A1 A1left1"/>
    </vehicle>
    <vehicle id="top1_bottom3.6" depart="11.32" color="150,0,150">
        <route edges="top1B4 B4C4 C4C3 C3D3 D3D2 D2D1 D1D0 D0bottom3"/>
    </vehicle>
    <vehicle id="top3_bottom1.6" depart="11.32" color="0,150,150">
        <route edges="top3D4 D4C4 C4C3 C3C2 C2B2 B2B1 B1B0 B0bottom1"/>
    </vehicle>
    <vehicle id="bottom0_top4.7" depart="11.47" color="red">
        <route edges="bottom0A0 A0A1 A1A2 A2A3 A3B3 B3C3 C3C4 C4D4 D4E4 E4top4"/>
    </vehicle>
    <vehicle id="bottom4_top0.7" depart="11.47" color="blue">
        <route edges="bottom4E0 E0D0 D0D1 D1C1 C1C2 C2B2 B2A2 A2A3 A3A4 A4top0"/>
    </vehicle>
    <vehicle id="left0_right4.7" depart="11.47" color="green">
        <route edges="left0A0 A0A1 A1A2 A2A3 A3B3 B3C3 C3C4 C4D4 D4E4 E4right4"/>
    </vehicle>
    <vehicle id="left4_right0.7" depart="11.47" color="yellow">
        <route edges="left4A4 A4B4 B4B3 B3B2 B2B1 B1B0 B0C0 C0D0 D0E0 E0right0"/>
    </vehicle>
    <vehicle id="right0_left4.7" depart="11.47" color="150,150,0">
        <route edges="right0E0 E0E1 E1E2 E2E3 E3E4 E4D4 D4C4 C4B4 B4A4 A4left4"/>
    </vehicle>
    <vehicle id="right4_left0.7" depart="11.47" color="0,150,0">
        <route edges="right4E4 E4E3 E3E2 E2D2 D2C2 C2C1 C1B1 B1A1 A1A0 A0left0"/>
    </vehicle>
    <vehicle id="top0_bottom4.7" depart="11.47" color="0,0,150">
        <route edges="top0A4 A4B4 B4C4 C4C3 C3D3 D3E3 E3E2 E2E1 E1E0 E0bottom4"/>
    </vehicle>
    <vehicle id="top4_bottom0.7" depart="11.47" color="150,0,0">
        <route edges="top4E4 E4E3 E3E2 E2D2 D2D1 D1D0 D0C0 C0B0 B0A0 A0bottom0"/>
    </vehicle>
    <vehicle id="bottom0_top4.8" depart="13.11" color="red">
        <route edges="bottom0A0 A0A1 A1A2 A2A3 A3B3 B3C3 C3C4 C4D4 D4E4 E4top4"/>
    </vehicle>
    <vehicle id="bottom4_top0.8" depart="13.11" color="blue">
        <route edges="bottom4E0 E0D0 D0D1 D1D2 D2C2 C2B2 B2B3 B3B4 B4A4 A4top0"/>
    </vehicle>
    <vehicle id="left0_right4.8" depart="13.11" color="green">
        <route edges="left0A0 A0B0 B0C0 C0D0 D0D1 D1D2 D2D3 D3D4 D4E4 E4right4"/>
    </vehicle>
    <vehicle id="left4_right0.8" depart="13.11" color="yellow">
        <route edges="left4A4 A4A3 A3B3 B3C3 C3D3 D3D2 D2D1 D1E1 E1E0 E0right0"/>
    </vehicle>
    <vehicle id="right0_left4.8" depart="13.11" color="150,150,0">
        <route edges="right0E0 E0E1 E1E2 E2E3 E3D3 D3D4 D4C4 C4B4 B4A4 A4left4"/>
    </vehicle>
    <vehicle id="right4_left0.8" depart="13.11" color="0,150,0">
        <route edges="right4E4 E4D4 D4C4 C4C3 C3C2 C2B2 B2A2 A2A1 A1A0 A0left0"/>
    </vehicle>
    <vehicle id="top0_bottom4.8" depart="13.11" color="0,0,150">
        <route edges="top0A4 A4B4 B4B3 B3B2 B2B1 B1B0 B0C0 C0D0 D0E0 E0bottom4"/>
    </vehicle>
    <vehicle id="top4_bottom0.8" depart="13.11" color="150,0,0">
        <route edges="top4E4 E4D4 D4C4 C4C3 C3C2 C2B2 B2A2 A2A1 A1A0 A0bottom0"/>
    </vehicle>
    <vehicle id="bottom1_top3.7" depart="13.20" color="cyan">
        <route edges="bottom1B0 B0C0 C0C1 C1C2 C2D2 D2D3 D3D4 D4top3"/>
    </vehicle>
    <vehicle id="bottom3_top1.7" depart="13.20" color="magenta">
        <route edges="bottom3D0 D0D1 D1C1 C1C2 C2C3 C3C4 C4B4 B4top1"/>
    </vehicle>
    <vehicle id="left1_right3.7" depart="13.20" color="white">
        <route edges="left1A1 A1A2 A2B2 B2C2 C2D2 D2D3 D3E3 E3right3"/>
    </vehicle>
    <vehicle id="left3_right1.7" depart="13.20" color="255,150,0">
        <route edges="left3A3 A3B3 B3C3 C3D3 D3D2 D2D1 D1E1 E1right1"/>
    </vehicle>
    <vehicle id="right1_left3.7" depart="13.20" color="150,100,0">
        <route edges="right1E1 E1D1 D1D2 D2C2 C2B2 B2B3 B3A3 A3left3"/>
    </vehicle>
    <vehicle id="right3_left1.7" depart="13.20" color="150,150,150">
        <route edges="right3E3 E3E2 E2D2 D2C2 C2C1 C1B1 B1A1 A1left1"/>
    </vehicle>
    <vehicle id="top1_bottom3.7" depart="13.20" color="150,0,150">
        <route edges="top1B4 B4C4 C4C3 C3C2 C2C1 C1C0 C0D0 D0bottom3"/>
    </vehicle>
    <vehicle id="top3_bottom1.7" depart="13.20" color="0,150,150">
        <route edges="top3D4 D4D3 D3C3 C3B3 B3B2 B2B1 B1B0 B0bottom1"/>
    </vehicle>
    <vehicle id="bottom0_top4.9" depart="14.75" color="red">
        <route edges="bottom0A0 A0A1 A1A2 A2A3 A3B3 B3C3 C3C4 C4D4 D4E4 E4top4"/>
    </vehicle>
    <vehicle id="bottom4_top0.9" depart="14.75" color="blue">
        <route edges="bottom4E0 E0D0 D0D1 D1D2 D2C2 C2B2 B2B3 B3B4 B4A4 A4top0"/>
    </vehicle>
    <vehicle id="left0_right4.9" depart="14.75" color="green">
        <route edges="left0A0 A0B0 B0B1 B1B2 B2C2 C2C3 C3C4 C4D4 D4E4 E4right4"/>
    </vehicle>
    <vehicle id="left4_right0.9" depart="14.75" color="yellow">
        <route edges="left4A4 A4B4 B4C4 C4D4 D4D3 D3E3 E3E2 E2E1 E1E0 E0right0"/>
    </vehicle>
    <vehicle id="right0_left4.9" depart="14.75" color="150,150,0">
        <route edges="right0E0 E0E1 E1E2 E2E3 E3E4 E4D4 D4C4 C4B4 B4A4 A4left4"/>
    </vehicle>
    <vehicle id="right4_left0.9" depart="14.75" color="0,150,0">
        <route edges="right4E4 E4D4 D4C4 C4C3 C3C2 C2B2 B2A2 A2A1 A1A0 A0left0"/>
    </vehicle>
    <vehicle id="top0_bottom4.9" depart="14.75" color="0,0,150">
        <route edges="top0A4 A4B4 B4C4 C4D4 D4D3 D3E3 E3E2 E2E1 E1E0 E0bottom4"/>
    </vehicle>
    <vehicle id="top4_bottom0.9" depart="14.75" color="150,0,0">
        <route edges="top4E4 E4E3 E3E2 E2D2 D2C2 C2C1 C1B1 B1A1 A1A0 A0bottom0"/>
    </vehicle>
    <vehicle id="bottom1_top3.8" depart="15.09" color="cyan">
        <route edges="bottom1B0 B0C0 C0C1 C1C2 C2C3 C3C4 C4D4 D4top3"/>
    </vehicle>
    <vehicle id="bottom3_top1.8" depart="15.09" color="magenta">
        <route edges="bottom3D0 D0C0 C0C1 C1C2 C2C3 C3C4 C4B4 B4top1"/>
    </vehicle>
    <vehicle id="left1_right3.8" depart="15.09" color="white">
        <route edges="left1A1 A1A2 A2B2 B2C2 C2D2 D2D3 D3E3 E3right3"/>
    </vehicle>
    <vehicle id="left3_right1.8" depart="15.09" color="255,150,0">
        <route edges="left3A3 A3A2 A2B2 B2B1 B1C1 C1D1 D1E1 E1right1"/>
    </vehicle>
    <vehicle id="right1_left3.8" depart="15.09" color="150,100,0">
        <route edges="right1E1 E1E2 E2D2 D2C2 C2B2 B2A2 A2A3 A3left3"/>
    </vehicle>
    <vehicle id="right3_left1.8" depart="15.09" color="150,150,150">
        <route edges="right3E3 E3E2 E2D2 D2C2 C2C1 C1B1 B1A1 A1left1"/>
    </vehicle>
    <vehicle id="top1_bottom3.8" depart="15.09" color="150,0,150">
        <route edges="top1B4 B4C4 C4C3 C3C2 C2C1 C1C0 C0D0 D0bottom3"/>
    </vehicle>
    <vehicle id="top3_bottom1.8" depart="15.09" color="0,150,150">
        <route edges="top3D4 D4D3 D3D2 D2C2 C2C1 C1B1 B1B0 B0bottom1"/>
    </vehicle>
    <vehicle id="bottom0_top4.10" depart="16.39" color="red">
        <route edges="bottom0A0 A0B0 B0C0 C0D0 D0D1 D1D2 D2D3 D3D4 D4E4 E4top4"/>
    </vehicle>
    <vehicle id="bottom4_top0.10" depart="16.39" color="blue">
        <route edges="bottom4E0 E0D0 D0D1 D1D2 D2C2 C2B2 B2B3 B3B4 B4A4 A4top0"/>
    </vehicle>
    <vehicle id="left0_right4.10" depart="16.39" color="green">
        <route edges="left0A0 A0A1 A1A2 A2B2 B2B3 B3B4 B4C4 C4D4 D4E4 E4right4"/>
    </vehicle>
    <vehicle id="left4_right0.10" depart="16.39" color="yellow">
        <route edges="left4A4 A4A3 A3A2 A2A1 A1B1 B1B0 B0C0 C0D0 D0E0 E0right0"/>
    </vehicle>
    <vehicle id="right0_left4.10" depart="16.39" color="150,150,0">
        <route edges="right0E0 E0D0 D0D1 D1D2 D2C2 C2B2 B2B3 B3B4 B4A4 A4left4"/>
    </vehicle>
    <vehicle id="right4_left0.10" depart="16.39" color="0,150,0">
        <route edges="right4E4 E4D4 D4D3 D3C3 C3B3 B3A3 A3A2 A2A1 A1A0 A0left0"/>
    </vehicle>
    <vehicle id="top0_bottom4.10" depart="16.39" color="0,0,150">
        <route edges="top0A4 A4B4 B4C4 C4C3 C3D3 D3E3 E3E2 E2E1 E1E0 E0bottom4"/>
    </vehicle>
    <vehicle id="top4_bottom0.10" depart="16.39" color="150,0,0">
        <route edges="top4E4 E4E3 E3E2 E2D2 D2D1 D1D0 D0C0 C0B0 B0A0 A0bottom0"/>
    </vehicle>
    <vehicle id="bottom1_top3.9" depart="16.97" color="cyan">
        <route edges="bottom1B0 B0C0 C0D0 D0D1 D1D2 D2D3 D3D4 D4top3"/>
    </vehicle>
    <vehicle id="bottom3_top1.9" depart="16.97" color="magenta">
        <route edges="bottom3D0 D0D1 D1D2 D2D3 D3C3 C3B3 B3B4 B4top1"/>
    </vehicle>
    <vehicle id="left1_right3.9" depart="16.97" color="white">
        <route edges="left1A1 A1A2 A2B2 B2C2 C2D2 D2E2 E2E3 E3right3"/>
    </vehicle>
    <vehicle id="left3_right1.9" depart="16.97" color="255,150,0">
        <route edges="left3A3 A3B3 B3B2 B2B1 B1C1 C1D1 D1E1 E1right1"/>
    </vehicle>
    <vehicle id="right1_left3.9" depart="16.97" color="150,100,0">
        <route edges="right1E1 E1E2 E2E3 E3D3 D3C3 C3B3 B3A3 A3left3"/>
    </vehicle>
    <vehicle id="right3_left1.9" depart="16.97" color="150,150,150">
        <route edges="right3E3 E3E2 E2D2 D2C2 C2C1 C1B1 B1A1 A1left1"/>
    </vehicle>
    <vehicle id="top1_bottom3.9" depart="16.97" color="150,0,150">
        <route edges="top1B4 B4B3 B3C3 C3D3 D3D2 D2D1 D1D0 D0bottom3"/>
    </vehicle>
    <vehicle id="top3_bottom1.9" depart="16.97" color="0,150,150">
        <route edges="top3D4 D4C4 C4C3 C3C2 C2B2 B2B1 B1B0 B0bottom1"/>
    </vehicle>
    <vehicle id="bottom0_top4.11" depart="18.03" color="red">
        <route edges="bottom0A0 A0B0 B0C0 C0D0 D0D1 D1D2 D2D3 D3D4 D4E4 E4top4"/>
    </vehicle>
    <vehicle id="bottom4_top0.11" depart="18.03" color="blue">
        <route edges="bottom4E0 E0E1 E1D1 D1D2 D2D3 D3C3 C3B3 B3A3 A3A4 A4top0"/>
    </vehicle>
    <vehicle id="left0_right4.11" depart="18.03" color="green">
        <route edges="left0A0 A0B0 B0C0 C0D0 D0D1 D1D2 D2D3 D3D4 D4E4 E4right4"/>
    </vehicle>
    <vehicle id="left4_right0.11" depart="18.03" color="yellow">
        <route edges="left4A4 A4B4 B4B3 B3B2 B2B1 B1B0 B0C0 C0D0 D0E0 E0right0"/>
    </vehicle>
    <vehicle id="right0_left4.11" depart="18.03" color="150,150,0">
        <route edges="right0E0 E0D0 D0D1 D1D2 D2C2 C2B2 B2B3 B3B4 B4A4 A4left4"/>
    </vehicle>
    <vehicle id="right4_left0.11" depart="18.03" color="0,150,0">
        <route edges="right4E4 E4E3 E3E2 E2D2 D2D1 D1D0 D0C0 C0B0 B0A0 A0left0"/>
    </vehicle>
    <vehicle id="top0_bottom4.11" depart="18.03" color="0,0,150">
        <route edges="top0A4 A4A3 A3A2 A2A1 A1A0 A0B0 B0C0 C0D0 D0E0 E0bottom4"/>
    </vehicle>
    <vehicle id="top4_bottom0.11" depart="18.03" color="150,0,0">
        <route edges="top4E4 E4D4 D4D3 D3C3 C3B3 B3A3 A3A2 A2A1 A1A0 A0bottom0"/>
    </vehicle>
    <vehicle id="bottom1_top3.10" depart="18.86" color="cyan">
        <route edges="bottom1B0 B0C0 C0C1 C1C2 C2D2 D2D3 D3D4 D4top3"/>
    </vehicle>
    <vehicle id="bottom3_top1.10" depart="18.86" color="magenta">
        <route edges="bottom3D0 D0C0 C0B0 B0B1 B1B2 B2B3 B3B4 B4top1"/>
    </vehicle>
    <vehicle id="left1_right3.10" depart="18.86" color="white">
        <route edges="left1A1 A1A2 A2B2 B2C2 C2D2 D2E2 E2E3 E3right3"/>
    </vehicle>
    <vehicle id="left3_right1.10" depart="18.86" color="255,150,0">
        <route edges="left3A3 A3A2 A2B2 B2C2 C2D2 D2E2 E2E1 E1right1"/>
    </vehicle>
    <vehicle id="right1_left3.10" depart="18.86" color="150,100,0">
        <route edges="right1E1 E1D1 D1C1 C1C2 C2B2 B2A2 A2A3 A3left3"/>
    </vehicle>
    <vehicle id="right3_left1.10" depart="18.86" color="150,150,150">
        <route edges="right3E3 E3E2 E2E1 E1D1 D1C1 C1B1 B1A1 A1left1"/>