<?xml version="1.0" encoding="UTF-8"?>

<configuration>
    <input>
        <net-file value="arterialGrid.net.xml"/>
	<route-files value="arterialGrid.rou.xml"/>
    </input>
    <time>
        <begin value="0"/>
        <end value="100000"/>
    </time>
    <time-to-teleport value="200"/> 
</configuration>
