<?xml version="1.0" encoding="UTF-8"?>

<!-- generated on seg 22 mar 2021 16:59:07 by Eclipse SUMO netedit Version 1.8.0
<configuration xmlns:xsi="http://www.w3.org/2001/XMLSchema-instance" xsi:noNamespaceSchemaLocation="http://sumo.dlr.de/xsd/netconvertConfiguration.xsd">

    <input>
        <sumo-net-file value="/home/arthur/Área%20de%20Trabalho/SUMO/cot/Cottbus.net.xml"/>
    </input>

    <output>
        <output-file value="/home/arthur/Área%20de%20Trabalho/SUMO/cot/newCottbus.net.xml"/>
    </output>

    <processing>
        <geometry.min-radius.fix.railways value="false"/>
        <geometry.max-grade.fix value="false"/>
        <offset.disable-normalization value="true"/>
        <lefthand value="false"/>
    </processing>

    <junctions>
        <no-turnarounds value="true"/>
        <junctions.corner-detail value="5"/>
        <junctions.limit-turn-speed value="5.5"/>
        <rectangular-lane-cut value="false"/>
    </junctions>

    <pedestrian>
        <walkingareas value="false"/>
    </pedestrian>

    <report>
        <aggregate-warnings value="5"/>
    </report>

</configuration>
-->

<net version="1.6" junctionCornerDetail="5" limitTurnSpeed="5.50" xmlns:xsi="http://www.w3.org/2001/XMLSchema-instance" xsi:noNamespaceSchemaLocation="http://sumo.dlr.de/xsd/net_file.xsd">

    <location netOffset="0.00,0.00" convBoundary="-132.80,-1622.31,3101.10,802.85" origBoundary="-10000000000.00,-10000000000.00,10000000000.00,10000000000.00" projParameter="!"/>

    <edge id=":gneJ10_0" function="internal">
        <lane id=":gneJ10_0_0" index="0" speed="7.76" length="12.90" shape="2542.92,-1275.55 2540.69,-1276.75 2538.09,-1276.59 2535.11,-1275.07 2531.76,-1272.18"/>
    </edge>
    <edge id=":gneJ10_1" function="internal">
        <lane id=":gneJ10_1_0" index="0" speed="13.89" length="23.08" shape="2542.92,-1275.55 2538.09,-1279.58 2533.93,-1282.04 2529.34,-1283.77 2523.27,-1285.60"/>
        <lane id=":gneJ10_1_1" index="1" speed="13.89" length="23.08" shape="2545.09,-1277.91 2540.07,-1282.04 2535.47,-1284.75 2530.46,-1286.72 2524.19,-1288.67"/>
    </edge>
    <edge id=":gneJ10_3" function="internal">
        <lane id=":gneJ10_3_0" index="0" speed="13.89" length="25.92" shape="2526.03,-1294.80 2532.69,-1292.63 2538.56,-1290.16 2544.01,-1286.97 2549.42,-1282.61"/>
        <lane id=":gneJ10_3_1" index="1" speed="13.89" length="25.92" shape="2525.11,-1291.73 2531.58,-1289.68 2537.02,-1287.46 2542.04,-1284.51 2547.26,-1280.26"/>
    </edge>
    <edge id=":gneJ10_5" function="internal">
        <lane id=":gneJ10_5_0" index="0" speed="8.81" length="8.54" shape="2525.11,-1291.73 2531.61,-1288.78 2532.45,-1287.66"/>
    </edge>
    <edge id=":gneJ10_8" function="internal">
        <lane id=":gneJ10_8_0" index="0" speed="8.81" length="15.41" shape="2532.45,-1287.66 2534.51,-1284.91 2533.80,-1280.13 2529.49,-1274.44"/>
    </edge>
    <edge id=":gneJ10_6" function="internal">
        <lane id=":gneJ10_6_0" index="0" speed="5.70" length="9.21" shape="2524.95,-1278.95 2526.61,-1281.14 2526.88,-1282.98 2525.77,-1284.47 2523.27,-1285.60"/>
    </edge>
    <edge id=":gneJ10_7" function="internal">
        <lane id=":gneJ10_7_0" index="0" speed="10.16" length="6.55" shape="2527.22,-1276.70 2532.29,-1280.84"/>
    </edge>
    <edge id=":gneJ10_9" function="internal">
        <lane id=":gneJ10_9_0" index="0" speed="10.16" length="16.30" shape="2532.29,-1280.84 2532.76,-1281.23 2537.94,-1283.33 2542.78,-1283.01 2547.26,-1280.26"/>
    </edge>
    <edge id=":gneJ11_0" function="internal">
        <lane id=":gneJ11_0_0" index="0" speed="4.18" length="1.28" shape="3059.91,-798.40 3059.87,-798.72 3059.77,-799.02 3059.61,-799.29 3059.39,-799.53"/>
    </edge>
    <edge id=":gneJ11_1" function="internal">
        <lane id=":gneJ11_1_0" index="0" speed="6.61" length="3.83" shape="3063.11,-798.49 3062.99,-799.46 3062.69,-800.35 3062.22,-801.16 3061.56,-801.88"/>
    </edge>
    <edge id=":gneJ11_2" function="internal">
        <lane id=":gneJ11_2_0" index="0" speed="3.65" length="2.13" shape="3063.11,-798.49 3063.87,-799.71 3064.48,-800.03"/>
    </edge>
    <edge id=":gneJ11_5" function="internal">
        <lane id=":gneJ11_5_0" index="0" speed="3.65" length="2.55" shape="3064.48,-800.03 3064.66,-800.13 3065.47,-799.76 3066.31,-798.58"/>
    </edge>
    <edge id=":gneJ11_3" function="internal">
        <lane id=":gneJ11_3_0" index="0" speed="9.80" length="8.94" shape="3065.90,-806.59 3067.43,-804.89 3068.54,-803.01 3069.23,-800.93 3069.50,-798.67"/>
    </edge>
    <edge id=":gneJ11_4" function="internal">
        <lane id=":gneJ11_4_0" index="0" speed="8.36" length="6.38" shape="3063.73,-804.23 3064.82,-803.02 3065.61,-801.68 3066.11,-800.20 3066.31,-798.58"/>
    </edge>
    <edge id=":gneJ12_0" function="internal">
        <lane id=":gneJ12_0_0" index="0" speed="13.89" length="3.16" shape="3105.86,305.31 3105.89,306.40 3105.85,307.15 3105.70,307.89 3105.39,308.94"/>
        <lane id=":gneJ12_0_1" index="1" speed="13.89" length="3.16" shape="3102.66,305.43 3102.68,306.21 3102.65,306.75 3102.55,307.27 3102.33,308.02"/>
    </edge>
    <edge id=":gneJ12_2" function="internal">
        <lane id=":gneJ12_2_0" index="0" speed="13.89" length="1.05" shape="3096.20,306.19 3096.24,306.04 3096.26,305.93 3096.27,305.83 3096.26,305.67"/>
        <lane id=":gneJ12_2_1" index="1" speed="11.62" length="1.05" shape="3099.26,307.11 3099.39,306.66 3099.46,306.34 3099.47,306.02 3099.46,305.55"/>
    </edge>
    <edge id=":gneJ13_0" function="internal">
        <lane id=":gneJ13_0_0" index="0" speed="9.47" length="10.58" shape="3049.36,496.22 3048.31,498.73 3046.79,500.80 3044.80,502.41 3042.34,503.58"/>
    </edge>
    <edge id=":gneJ13_1" function="internal">
        <lane id=":gneJ13_1_0" index="0" speed="8.09" length="7.56" shape="3046.30,495.30 3045.55,497.10 3044.46,498.57 3043.04,499.72 3041.28,500.56"/>
    </edge>
    <edge id=":gneJ13_2" function="internal">
        <lane id=":gneJ13_2_0" index="0" speed="4.07" length="1.51" shape="3039.16,494.52 3039.51,494.35 3039.80,494.12 3040.02,493.83 3040.17,493.47"/>
    </edge>
    <edge id=":gneJ13_3" function="internal">
        <lane id=":gneJ13_3_0" index="0" speed="6.40" length="4.53" shape="3040.22,497.54 3041.28,497.04 3042.13,496.35 3042.78,495.46 3043.23,494.38"/>
    </edge>
    <edge id=":gneJ14_0" function="internal">
        <lane id=":gneJ14_0_0" index="0" speed="13.89" length="1.92" shape="2592.39,661.12 2591.76,661.33 2591.33,661.46 2590.88,661.55 2590.22,661.64"/>
        <lane id=":gneJ14_0_1" index="1" speed="13.89" length="1.92" shape="2591.33,658.10 2590.89,658.25 2590.57,658.34 2590.25,658.41 2589.78,658.47"/>
    </edge>
    <edge id=":gneJ14_2" function="internal">
        <lane id=":gneJ14_2_0" index="0" speed="13.89" length="0.64" shape="2588.91,652.13 2589.00,652.12 2589.07,652.11 2589.13,652.09 2589.22,652.06"/>
        <lane id=":gneJ14_2_1" index="1" speed="13.89" length="0.64" shape="2589.35,655.30 2589.63,655.26 2589.82,655.23 2590.01,655.17 2590.28,655.08"/>
    </edge>
    <edge id=":gneJ15_0" function="internal">
        <lane id=":gneJ15_0_0" index="0" speed="13.89" length="15.20" shape="2077.88,732.39 2062.71,734.07"/>
        <lane id=":gneJ15_0_1" index="1" speed="13.89" length="15.20" shape="2077.44,729.22 2062.41,730.89"/>
    </edge>
    <edge id=":gneJ15_2" function="internal">
        <lane id=":gneJ15_2_0" index="0" speed="10.00" length="4.62" shape="2077.44,729.22 2074.28,728.87 2073.07,728.10"/>
    </edge>
    <edge id=":gneJ15_8" function="internal">
        <lane id=":gneJ15_8_0" index="0" speed="10.00" length="12.72" shape="2073.07,728.10 2071.21,726.92 2068.23,723.38 2065.33,718.24"/>
    </edge>
    <edge id=":gneJ15_3" function="internal">
        <lane id=":gneJ15_3_0" index="0" speed="8.08" length="11.05" shape="2068.22,716.86 2069.95,719.76 2071.92,721.73 2074.13,722.77 2076.57,722.88"/>
    </edge>
    <edge id=":gneJ15_4" function="internal">
        <lane id=":gneJ15_4_0" index="0" speed="8.23" length="5.44" shape="2068.22,716.86 2069.98,722.00"/>
    </edge>
    <edge id=":gneJ15_9" function="internal">
        <lane id=":gneJ15_9_0" index="0" speed="8.23" length="13.68" shape="2069.98,722.00 2070.17,722.56 2069.86,726.80 2067.27,729.58 2062.41,730.89"/>
    </edge>
    <edge id=":gneJ15_5" function="internal">
        <lane id=":gneJ15_5_0" index="0" speed="5.88" length="9.11" shape="2061.79,724.52 2064.36,723.90 2065.81,722.65 2066.13,720.76 2065.33,718.24"/>
    </edge>
    <edge id=":gneJ15_6" function="internal">
        <lane id=":gneJ15_6_0" index="0" speed="13.89" length="14.93" shape="2061.79,724.52 2076.57,722.88"/>
        <lane id=":gneJ15_6_1" index="1" speed="13.89" length="14.93" shape="2062.10,727.70 2077.01,726.05"/>
    </edge>
    <edge id=":gneJ17_0" function="internal">
        <lane id=":gneJ17_0_0" index="0" speed="13.89" length="15.65" shape="1007.70,807.26 1003.01,807.46 999.80,807.57 996.59,807.54 991.90,807.31"/>
        <lane id=":gneJ17_0_1" index="1" speed="13.89" length="15.65" shape="1007.57,804.06 1002.97,804.26 999.82,804.37 996.68,804.34 992.09,804.12"/>
    </edge>
    <edge id=":gneJ17_2" function="internal">
        <lane id=":gneJ17_2_0" index="0" speed="8.25" length="6.09" shape="1007.57,804.06 1002.66,803.42 1001.77,802.70"/>
    </edge>
    <edge id=":gneJ17_8" function="internal">
        <lane id=":gneJ17_8_0" index="0" speed="8.25" length="12.84" shape="1001.77,802.70 999.73,801.04 998.76,796.91 999.76,791.04"/>
    </edge>
    <edge id=":gneJ17_3" function="internal">
        <lane id=":gneJ17_3_0" index="0" speed="5.92" length="9.10" shape="1002.83,791.94 1002.45,794.54 1003.07,796.36 1004.69,797.40 1007.30,797.66"/>
    </edge>
    <edge id=":gneJ17_4" function="internal">
        <lane id=":gneJ17_4_0" index="0" speed="9.66" length="4.68" shape="1002.83,791.94 1001.19,796.32"/>
    </edge>
    <edge id=":gneJ17_9" function="internal">
        <lane id=":gneJ17_9_0" index="0" speed="9.66" length="12.79" shape="1001.19,796.32 1000.78,797.42 998.30,801.27 995.40,803.51 992.09,804.12"/>
    </edge>
    <edge id=":gneJ17_5" function="internal">
        <lane id=":gneJ17_5_0" index="0" speed="7.70" length="10.77" shape="992.45,797.73 994.88,797.42 996.91,796.21 998.54,794.08 999.76,791.04"/>
    </edge>
    <edge id=":gneJ17_6" function="internal">
        <lane id=":gneJ17_6_0" index="0" speed="13.89" length="15.02" shape="992.45,797.73 996.85,797.94 999.87,797.97 1002.89,797.86 1007.30,797.66"/>
        <lane id=":gneJ17_6_1" index="1" speed="13.89" length="15.02" shape="992.27,800.92 996.77,801.14 999.85,801.17 1002.93,801.06 1007.43,800.86"/>
    </edge>
    <edge id=":gneJ20_0" function="internal">
        <lane id=":gneJ20_0_0" index="0" speed="13.89" length="15.74" shape="-137.31,167.76 -137.47,163.03 -137.46,159.79 -137.24,156.55 -136.79,151.83"/>
        <lane id=":gneJ20_0_1" index="1" speed="13.89" length="15.74" shape="-134.11,167.64 -134.27,163.03 -134.26,159.88 -134.05,156.73 -133.60,152.15"/>
    </edge>
    <edge id=":gneJ20_2" function="internal">
        <lane id=":gneJ20_2_0" index="0" speed="8.73" length="5.30" shape="-134.11,167.64 -133.49,163.72 -132.66,162.67"/>
    </edge>
    <edge id=":gneJ20_8" function="internal">
        <lane id=":gneJ20_8_0" index="0" speed="8.73" length="11.97" shape="-132.66,162.67 -131.26,160.87 -127.43,159.11 -122.00,158.42"/>
    </edge>
    <edge id=":gneJ20_3" function="internal">
        <lane id=":gneJ20_3_0" index="0" speed="6.58" length="9.35" shape="-121.92,161.62 -124.54,162.03 -126.38,163.13 -127.44,164.92 -127.72,167.38"/>
    </edge>
    <edge id=":gneJ20_4" function="internal">
        <lane id=":gneJ20_4_0" index="0" speed="8.48" length="4.35" shape="-121.92,161.62 -126.26,161.24"/>
    </edge>
    <edge id=":gneJ20_9" function="internal">
        <lane id=":gneJ20_9_0" index="0" speed="8.48" length="13.21" shape="-126.26,161.24 -127.40,161.14 -131.17,159.40 -133.24,156.41 -133.60,152.15"/>
    </edge>
    <edge id=":gneJ20_5" function="internal">
        <lane id=":gneJ20_5_0" index="0" speed="6.26" length="9.05" shape="-127.23,152.78 -127.12,155.30 -126.21,157.08 -124.50,158.12 -122.00,158.42"/>
    </edge>
    <edge id=":gneJ20_6" function="internal">
        <lane id=":gneJ20_6_0" index="0" speed="13.89" length="14.86" shape="-127.23,152.78 -127.65,157.10 -127.85,160.07 -127.86,163.04 -127.72,167.38"/>
        <lane id=":gneJ20_6_1" index="1" speed="13.89" length="14.86" shape="-130.42,152.46 -130.85,156.92 -131.06,159.98 -131.07,163.04 -130.91,167.51"/>
    </edge>
    <edge id=":gneJ21_0" function="internal">
        <lane id=":gneJ21_0_0" index="0" speed="7.23" length="2.87" shape="453.62,269.57 452.80,269.79 452.21,269.85 451.63,269.76 450.82,269.52"/>
    </edge>
    <edge id=":gneJ21_1" function="internal">
        <lane id=":gneJ21_1_0" index="0" speed="13.89" length="0.96" shape="451.81,266.48 452.08,266.56 452.27,266.59 452.47,266.57 452.74,266.49"/>
    </edge>
    <edge id=":gneJ22_0" function="internal">
        <lane id=":gneJ22_0_0" index="0" speed="6.71" length="9.63" shape="920.02,143.10 918.91,140.55 917.35,138.94 915.34,138.28 912.87,138.57"/>
    </edge>
    <edge id=":gneJ22_1" function="internal">
        <lane id=":gneJ22_1_0" index="0" speed="13.89" length="15.04" shape="920.02,143.10 916.20,128.56"/>
    </edge>
    <edge id=":gneJ22_2" function="internal">
        <lane id=":gneJ22_2_0" index="0" speed="7.69" length="6.32" shape="920.02,143.10 919.43,138.91 920.05,136.92"/>
    </edge>
    <edge id=":gneJ22_12" function="internal">
        <lane id=":gneJ22_12_0" index="0" speed="7.69" length="8.69" shape="920.05,136.92 920.41,135.79 922.96,133.76 927.09,132.80"/>
    </edge>
    <edge id=":gneJ22_3" function="internal">
        <lane id=":gneJ22_3_0" index="0" speed="6.12" length="9.06" shape="927.36,135.99 924.87,136.57 923.32,137.80 922.73,139.68 923.09,142.21"/>
    </edge>
    <edge id=":gneJ22_4" function="internal">
        <lane id=":gneJ22_4_0" index="0" speed="13.89" length="14.74" shape="927.36,135.99 923.67,136.38 920.05,136.92 916.46,137.65 912.87,138.57"/>
    </edge>
    <edge id=":gneJ22_5" function="internal">
        <lane id=":gneJ22_5_0" index="0" speed="8.62" length="14.85" shape="927.36,135.99 923.19,135.82 919.94,134.52 917.61,132.10 916.20,128.56"/>
    </edge>
    <edge id=":gneJ22_6" function="internal">
        <lane id=":gneJ22_6_0" index="0" speed="7.24" length="10.20" shape="919.32,127.84 920.28,130.22 921.90,131.84 924.17,132.70 927.09,132.80"/>
    </edge>
    <edge id=":gneJ22_7" function="internal">
        <lane id=":gneJ22_7_0" index="0" speed="13.89" length="14.85" shape="919.32,127.84 923.09,142.21"/>
    </edge>
    <edge id=":gneJ22_8" function="internal">
        <lane id=":gneJ22_8_0" index="0" speed="8.13" length="5.57" shape="919.32,127.84 919.64,131.64 919.11,133.32"/>
    </edge>
    <edge id=":gneJ22_13" function="internal">
        <lane id=":gneJ22_13_0" index="0" speed="8.13" length="8.54" shape="919.11,133.32 918.67,134.69 916.41,137.00 912.87,138.57"/>
    </edge>
    <edge id=":gneJ22_9" function="internal">
        <lane id=":gneJ22_9_0" index="0" speed="6.66" length="9.14" shape="912.00,135.49 914.30,134.48 915.77,132.98 916.40,131.01 916.20,128.56"/>
    </edge>
    <edge id=":gneJ22_10" function="internal">
        <lane id=":gneJ22_10_0" index="0" speed="13.89" length="15.36" shape="912.00,135.49 915.68,134.55 919.48,133.79 923.31,133.21 927.09,132.80"/>
    </edge>
    <edge id=":gneJ22_11" function="internal">
        <lane id=":gneJ22_11_0" index="0" speed="8.17" length="14.77" shape="912.00,135.49 915.85,135.01 918.99,135.97 921.40,138.37 923.09,142.21"/>
    </edge>
    <edge id=":gneJ23_0" function="internal">
        <lane id=":gneJ23_0_0" index="0" speed="7.33" length="2.76" shape="1057.54,603.07 1057.76,603.86 1057.83,604.42 1057.75,604.98 1057.54,605.77"/>
    </edge>
    <edge id=":gneJ23_1" function="internal">
        <lane id=":gneJ23_1_0" index="0" speed="13.89" length="0.92" shape="1054.47,604.87 1054.54,604.61 1054.57,604.42 1054.54,604.23 1054.47,603.97"/>
    </edge>
    <edge id=":gneJ25_0" function="internal">
        <lane id=":gneJ25_0_0" index="0" speed="8.14" length="9.77" shape="1387.42,122.43 1386.04,120.03 1384.35,118.31 1382.36,117.25 1380.05,116.87"/>
    </edge>
    <edge id=":gneJ25_1" function="internal">
        <lane id=":gneJ25_1_0" index="0" speed="8.01" length="13.92" shape="1387.42,122.43 1386.37,118.78 1386.72,115.64 1388.48,113.01 1391.64,110.90"/>
    </edge>
    <edge id=":gneJ25_2" function="internal">
        <lane id=":gneJ25_2_0" index="0" speed="6.51" length="8.86" shape="1393.02,113.79 1391.01,115.13 1389.89,116.80 1389.67,118.80 1390.34,121.13"/>
    </edge>
    <edge id=":gneJ25_3" function="internal">
        <lane id=":gneJ25_3_0" index="0" speed="13.89" length="13.47" shape="1393.02,113.79 1389.80,115.20 1386.72,116.17 1383.56,116.73 1380.05,116.87"/>
    </edge>
    <edge id=":gneJ25_4" function="internal">
        <lane id=":gneJ25_4_0" index="0" speed="13.89" length="12.00" shape="1380.12,113.67 1383.39,113.58 1386.06,113.13 1388.64,112.26 1391.64,110.90"/>
    </edge>
    <edge id=":gneJ25_5" function="internal">
        <lane id=":gneJ25_5_0" index="0" speed="9.45" length="4.85" shape="1380.12,113.67 1383.36,114.18 1384.76,114.89"/>
    </edge>
    <edge id=":gneJ25_6" function="internal">
        <lane id=":gneJ25_6_0" index="0" speed="9.45" length="8.55" shape="1384.76,114.89 1386.14,115.60 1388.47,117.91 1390.34,121.13"/>
    </edge>
    <edge id=":gneJ26_0" function="internal">
        <lane id=":gneJ26_0_0" index="0" speed="6.50" length="4.16" shape="1534.97,447.70 1533.98,447.30 1533.15,446.73 1532.47,445.98 1531.94,445.05"/>
    </edge>
    <edge id=":gneJ26_1" function="internal">
        <lane id=":gneJ26_1_0" index="0" speed="4.13" length="1.39" shape="1534.86,443.75 1535.03,444.05 1535.26,444.30 1535.54,444.50 1535.87,444.63"/>
    </edge>
    <edge id=":gneJ27_0" function="internal">
        <lane id=":gneJ27_0_0" index="0" speed="4.15" length="1.34" shape="2000.95,584.24 2000.77,583.95 2000.54,583.71 2000.27,583.52 1999.95,583.40"/>
    </edge>
    <edge id=":gneJ27_1" function="internal">
        <lane id=":gneJ27_1_0" index="0" speed="6.54" length="4.03" shape="2000.85,580.32 2001.81,580.71 2002.62,581.26 2003.30,581.97 2003.83,582.85"/>
    </edge>
    <edge id=":gneJ3_0" function="internal">
        <lane id=":gneJ3_0_0" index="0" speed="8.98" length="16.83" shape="-104.47,745.12 -108.94,744.23 -112.19,742.15 -114.22,738.86 -115.02,734.38"/>
    </edge>
    <edge id=":gneJ3_1" function="internal">
        <lane id=":gneJ3_1_0" index="0" speed="7.68" length="12.02" shape="-104.29,741.93 -107.48,741.29 -109.80,739.80 -111.25,737.46 -111.83,734.25"/>
    </edge>
    <edge id=":gneJ3_2" function="internal">
        <lane id=":gneJ3_2_0" index="0" speed="3.91" length="2.40" shape="-105.43,734.00 -105.32,734.64 -105.03,735.11 -104.56,735.41 -103.92,735.54"/>
    </edge>
    <edge id=":gneJ3_3" function="internal">
        <lane id=":gneJ3_3_0" index="0" speed="6.09" length="7.21" shape="-108.63,734.13 -108.28,736.05 -107.41,737.46 -106.02,738.35 -104.11,738.73"/>
    </edge>
    <edge id=":gneJ33_0" function="internal">
        <lane id=":gneJ33_0_0" index="0" speed="4.16" length="1.32" shape="-15.19,-914.77 -15.46,-914.57 -15.68,-914.34 -15.85,-914.06 -15.96,-913.74"/>
    </edge>
    <edge id=":gneJ33_1" function="internal">
        <lane id=":gneJ33_1_0" index="0" speed="6.56" length="3.97" shape="-16.75,-917.56 -17.58,-916.98 -18.25,-916.27 -18.74,-915.44 -19.07,-914.48"/>
    </edge>
    <edge id=":gneJ33_2" function="internal">
        <lane id=":gneJ33_2_0" index="0" speed="9.73" length="9.26" shape="-25.30,-915.96 -24.53,-918.20 -23.38,-920.14 -21.82,-921.79 -19.88,-923.14"/>
    </edge>
    <edge id=":gneJ33_3" function="internal">
        <lane id=":gneJ33_3_0" index="0" speed="8.30" length="6.61" shape="-22.19,-915.22 -21.64,-916.82 -20.81,-918.21 -19.70,-919.38 -18.32,-920.35"/>
    </edge>
    <edge id=":gneJ34_0" function="internal">
        <lane id=":gneJ34_0_0" index="0" speed="8.13" length="11.26" shape="204.31,-999.94 202.12,-998.85 200.51,-996.97 199.50,-994.31 199.08,-990.85"/>
    </edge>
    <edge id=":gneJ34_1" function="internal">
        <lane id=":gneJ34_1_0" index="0" speed="13.89" length="15.14" shape="204.31,-999.94 190.10,-995.11"/>
        <lane id=":gneJ34_1_1" index="1" speed="13.89" length="15.14" shape="203.45,-1003.03 188.98,-998.10"/>
    </edge>
    <edge id=":gneJ34_3" function="internal">
        <lane id=":gneJ34_3_0" index="0" speed="13.89" length="15.68" shape="186.75,-1004.10 201.73,-1009.19"/>
        <lane id=":gneJ34_3_1" index="1" speed="13.89" length="15.68" shape="187.87,-1001.10 202.59,-1006.11"/>
    </edge>
    <edge id=":gneJ34_5" function="internal">
        <lane id=":gneJ34_5_0" index="0" speed="8.20" length="6.59" shape="187.87,-1001.10 192.95,-1002.10 194.26,-1001.59"/>
    </edge>
    <edge id=":gneJ34_8" function="internal">
        <lane id=":gneJ34_8_0" index="0" speed="8.20" length="12.83" shape="194.26,-1001.59 196.51,-1000.72 198.56,-996.97 199.08,-990.85"/>
    </edge>
    <edge id=":gneJ34_6" function="internal">
        <lane id=":gneJ34_6_0" index="0" speed="5.83" length="9.13" shape="195.88,-990.95 195.60,-993.61 194.54,-995.18 192.71,-995.68 190.10,-995.11"/>
    </edge>
    <edge id=":gneJ34_7" function="internal">
        <lane id=":gneJ34_7_0" index="0" speed="10.04" length="4.60" shape="195.88,-990.95 196.33,-995.53"/>
    </edge>
    <edge id=":gneJ34_9" function="internal">
        <lane id=":gneJ34_9_0" index="0" speed="10.04" length="12.98" shape="196.33,-995.53 196.46,-996.93 197.78,-1001.44 199.82,-1004.50 202.59,-1006.11"/>
    </edge>
    <edge id=":gneJ35_0" function="internal">
        <lane id=":gneJ35_0_0" index="0" speed="13.89" length="14.12" shape="197.71,-780.90 183.63,-781.22"/>
        <lane id=":gneJ35_0_1" index="1" speed="13.89" length="14.12" shape="197.82,-784.09 183.66,-784.42"/>
    </edge>
    <edge id=":gneJ35_2" function="internal">
        <lane id=":gneJ35_2_0" index="0" speed="8.67" length="5.16" shape="197.82,-784.09 194.01,-784.98 193.08,-785.80"/>
    </edge>
    <edge id=":gneJ35_8" function="internal">
        <lane id=":gneJ35_8_0" index="0" speed="8.67" length="11.66" shape="193.08,-785.80 191.35,-787.32 189.83,-791.12 189.45,-796.38"/>
    </edge>
    <edge id=":gneJ35_3" function="internal">
        <lane id=":gneJ35_3_0" index="0" speed="6.51" length="9.01" shape="192.65,-796.27 192.92,-793.82 193.91,-792.04 195.62,-790.93 198.05,-790.49"/>
    </edge>
    <edge id=":gneJ35_4" function="internal">
        <lane id=":gneJ35_4_0" index="0" speed="8.72" length="4.08" shape="192.65,-796.27 192.10,-792.23"/>
    </edge>
    <edge id=":gneJ35_9" function="internal">
        <lane id=":gneJ35_9_0" index="0" speed="8.72" length="12.67" shape="192.10,-792.23 191.94,-791.05 190.21,-787.34 187.44,-785.13 183.66,-784.42"/>
    </edge>
    <edge id=":gneJ35_5" function="internal">
        <lane id=":gneJ35_5_0" index="0" speed="6.57" length="9.06" shape="183.72,-790.82 186.16,-791.14 187.93,-792.18 189.03,-793.92 189.45,-796.38"/>
    </edge>
    <edge id=":gneJ35_6" function="internal">
        <lane id=":gneJ35_6_0" index="0" speed="13.89" length="14.29" shape="183.72,-790.82 198.05,-790.49"/>
        <lane id=":gneJ35_6_1" index="1" speed="13.89" length="14.29" shape="183.69,-787.62 197.93,-787.29"/>
    </edge>
    <edge id=":gneJ36_0" function="internal">
        <lane id=":gneJ36_0_0" index="0" speed="6.30" length="9.04" shape="894.24,-755.47 891.72,-755.37 889.93,-754.47 888.85,-752.77 888.48,-750.29"/>
    </edge>
    <edge id=":gneJ36_1" function="internal">
        <lane id=":gneJ36_1_0" index="0" speed="13.89" length="15.07" shape="894.24,-755.47 879.30,-756.51"/>
        <lane id=":gneJ36_1_1" index="1" speed="13.89" length="15.07" shape="894.56,-758.65 879.42,-759.71"/>
    </edge>
    <edge id=":gneJ36_3" function="internal">
        <lane id=":gneJ36_3_0" index="0" speed="9.22" length="3.79" shape="894.56,-758.65 890.92,-759.70"/>
    </edge>
    <edge id=":gneJ36_14" function="internal">
        <lane id=":gneJ36_14_0" index="0" speed="9.22" length="13.88" shape="890.92,-759.70 890.51,-759.81 887.62,-762.35 885.88,-766.27 885.30,-771.56"/>
    </edge>
    <edge id=":gneJ36_4" function="internal">
        <lane id=":gneJ36_4_0" index="0" speed="7.21" length="10.45" shape="888.50,-771.56 888.92,-768.96 890.18,-767.00 892.27,-765.69 895.21,-765.02"/>
    </edge>
    <edge id=":gneJ36_5" function="internal">
        <lane id=":gneJ36_5_0" index="0" speed="13.89" length="21.28" shape="888.50,-771.56 888.48,-750.29"/>
    </edge>
    <edge id=":gneJ36_6" function="internal">
        <lane id=":gneJ36_6_0" index="0" speed="8.61" length="4.46" shape="888.50,-771.56 888.03,-767.12"/>
    </edge>
    <edge id=":gneJ36_15" function="internal">
        <lane id=":gneJ36_15_0" index="0" speed="8.61" length="12.59" shape="888.03,-767.12 887.94,-766.25 886.24,-762.51 883.40,-760.33 879.42,-759.71"/>
    </edge>
    <edge id=":gneJ36_7" function="internal">
        <lane id=":gneJ36_7_0" index="0" speed="6.43" length="9.03" shape="879.65,-766.10 882.12,-766.37 883.89,-767.37 884.95,-769.10 885.30,-771.56"/>
    </edge>
    <edge id=":gneJ36_8" function="internal">
        <lane id=":gneJ36_8_0" index="0" speed="13.89" length="15.49" shape="879.65,-766.10 895.21,-765.02"/>
        <lane id=":gneJ36_8_1" index="1" speed="13.89" length="15.49" shape="879.53,-762.90 894.88,-761.84"/>
    </edge>
    <edge id=":gneJ36_10" function="internal">
        <lane id=":gneJ36_10_0" index="0" speed="8.91" length="3.62" shape="879.53,-762.90 883.06,-762.09"/>
    </edge>
    <edge id=":gneJ36_16" function="internal">
        <lane id=":gneJ36_16_0" index="0" speed="8.91" length="13.78" shape="883.06,-762.09 883.46,-762.00 886.26,-759.59 887.94,-755.69 888.48,-750.29"/>
    </edge>
    <edge id=":gneJ36_11" function="internal">
        <lane id=":gneJ36_11_0" index="0" speed="6.82" length="9.76" shape="885.28,-750.29 884.92,-752.93 883.80,-754.85 881.93,-756.04 879.30,-756.51"/>
    </edge>
    <edge id=":gneJ36_12" function="internal">
        <lane id=":gneJ36_12_0" index="0" speed="13.89" length="21.27" shape="885.28,-750.29 885.30,-771.56"/>
    </edge>
    <edge id=":gneJ36_13" function="internal">
        <lane id=":gneJ36_13_0" index="0" speed="8.51" length="4.19" shape="885.28,-750.29 885.75,-754.46"/>
    </edge>
    <edge id=":gneJ36_17" function="internal">
        <lane id=":gneJ36_17_0" index="0" speed="8.51" length="13.23" shape="885.75,-754.46 885.90,-755.71 887.70,-759.44 890.69,-761.48 894.88,-761.84"/>
    </edge>
    <edge id=":gneJ40_0" function="internal">
        <lane id=":gneJ40_0_0" index="0" speed="10.21" length="13.50" shape="1201.59,121.17 1198.71,117.80 1195.95,115.46 1193.33,114.13 1190.84,113.83"/>
    </edge>
    <edge id=":gneJ40_1" function="internal">
        <lane id=":gneJ40_1_0" index="0" speed="7.38" length="18.00" shape="1201.59,121.17 1198.77,116.34 1198.75,112.92 1201.52,110.93 1207.08,110.35"/>
    </edge>
    <edge id=":gneJ40_2" function="internal">
        <lane id=":gneJ40_2_0" index="0" speed="5.54" length="9.45" shape="1207.02,113.55 1204.10,113.86 1202.65,114.90 1202.66,116.69 1204.13,119.23"/>
    </edge>
    <edge id=":gneJ40_3" function="internal">
        <lane id=":gneJ40_3_0" index="0" speed="13.89" length="16.19" shape="1207.02,113.55 1203.08,113.50 1198.92,113.50 1194.76,113.59 1190.84,113.83"/>
    </edge>
    <edge id=":gneJ40_4" function="internal">
        <lane id=":gneJ40_4_0" index="0" speed="13.89" length="16.52" shape="1190.57,110.64 1194.55,110.40 1198.82,110.30 1203.09,110.30 1207.08,110.35"/>
    </edge>
    <edge id=":gneJ40_5" function="internal">
        <lane id=":gneJ40_5_0" index="0" speed="11.31" length="5.74" shape="1190.57,110.64 1193.90,110.97 1196.08,111.96"/>
    </edge>
    <edge id=":gneJ40_6" function="internal">
        <lane id=":gneJ40_6_0" index="0" speed="11.31" length="10.96" shape="1196.08,111.96 1197.27,112.51 1200.68,115.26 1204.13,119.23"/>
    </edge>
    <edge id=":gneJ41_0" function="internal">
        <lane id=":gneJ41_0_0" index="0" speed="13.89" length="0.57" shape="1394.43,375.02 1394.38,374.86 1394.34,374.75 1394.28,374.65 1394.18,374.52"/>
    </edge>
    <edge id=":gneJ41_1" function="internal">
        <lane id=":gneJ41_1_0" index="0" speed="10.18" length="1.72" shape="1396.72,372.58 1397.03,372.99 1397.21,373.29 1397.35,373.61 1397.50,374.10"/>
    </edge>
    <edge id=":gneJ42_0" function="internal">
        <lane id=":gneJ42_0_0" index="0" speed="13.89" length="15.11" shape="1525.05,785.74 1509.88,786.69"/>
        <lane id=":gneJ42_0_1" index="1" speed="13.89" length="15.11" shape="1524.74,782.55 1509.75,783.49"/>
    </edge>
    <edge id=":gneJ42_2" function="internal">
        <lane id=":gneJ42_2_0" index="0" speed="9.46" length="4.93" shape="1524.74,782.55 1521.33,782.09 1520.11,781.24"/>
    </edge>
    <edge id=":gneJ42_8" function="internal">
        <lane id=":gneJ42_8_0" index="0" speed="9.46" length="12.26" shape="1520.11,781.24 1518.37,780.02 1515.86,776.34 1513.80,771.05"/>
    </edge>
    <edge id=":gneJ42_3" function="internal">